demo/ams_benchmark/UCCase/C2FEN00617/scenario_005/case.raw
0,100.0,33,0,0,60.0
GRID OPTIMIZATION COMPETITION CHALLENGE 2
INPUT DATA FILES ARE RAW JSON CON
1,'ATHENS 1 1',115.0,1,1,1,1,0.99925733,0.642692,1.1,0.9,1.1,0.9
2,'ATHENS 2 1',115.0,1,1,1,1,1.00162566,0.440827,1.1,0.9,1.1,0.9
3,'ATHENS 3 1',115.0,1,1,1,1,1.00343788,0.363412,1.1,0.9,1.1,0.9
4,'FRANKSTON 1',115.0,1,1,1,1,1.00119305,2.836035,1.1,0.9,1.1,0.9
5,'FRANKSTON 2',115.0,1,1,1,1,1.00087345,2.83419,1.1,0.9,1.1,0.9
6,'PALESTINE ~1',115.0,1,1,1,1,1.00073051,2.503836,1.1,0.9,1.1,0.9
7,'PALESTINE ~2',115.0,1,1,1,1,1.00042248,2.958562,1.1,0.9,1.1,0.9
8,'PALESTINE ~3',230.0,1,1,1,1,1.03204381,5.296419,1.1,0.9,1.1,0.9
9,'PALESTINE ~4',115.0,1,1,1,1,1.00050163,3.986373,1.1,0.9,1.1,0.9
10,'PALESTINE ~5',115.0,1,1,1,1,1.00292051,1.580777,1.1,0.9,1.1,0.9
11,'PALESTINE ~6',115.0,1,1,1,1,1.00862312,2.657467,1.1,0.9,1.1,0.9
12,'PALESTINE ~7',230.0,1,1,1,1,1.03511393,4.922031,1.1,0.9,1.1,0.9
13,'PALESTINE ~8',230.0,1,1,1,1,1.03479159,4.854073,1.1,0.9,1.1,0.9
14,'PALESTINE ~9',115.0,1,1,1,1,1.01444185,3.148485,1.1,0.9,1.1,0.9
15,'BUFFALO 1',115.0,1,1,1,1,1.01582789,0.183046,1.1,0.9,1.1,0.9
16,'CENTERVILL~1',115.0,1,1,1,1,1.00492132,-0.371091,1.1,0.9,1.1,0.9
17,'CROCKETT 1 1',115.0,1,1,1,1,1.02249873,0.095904,1.1,0.9,1.1,0.9
18,'CROCKETT 1 2',115.0,1,1,1,1,1.02251351,0.097811,1.1,0.9,1.1,0.9
19,'CROCKETT 2 1',230.0,1,1,1,1,1.03909159,2.275821,1.1,0.9,1.1,0.9
20,'CROCKETT 2 2',230.0,1,1,1,1,1.03883147,2.236641,1.1,0.9,1.1,0.9
21,'CROCKETT 2 3',115.0,1,1,1,1,1.03346384,0.922384,1.1,0.9,1.1,0.9
22,'CROCKETT 2 4',230.0,1,1,1,1,1.03948593,2.31865,1.1,0.9,1.1,0.9
23,'ELKHART 1',115.0,1,1,1,1,1.00421095,1.706572,1.1,0.9,1.1,0.9
24,'FAIRFIELD ~1',115.0,1,1,1,1,1.04315901,5.046489,1.1,0.9,1.1,0.9
25,'FAIRFIELD ~2',115.0,1,1,1,1,1.04210413,4.894585,1.1,0.9,1.1,0.9
26,'GRAPELAND 1',115.0,1,1,1,1,1.00926149,1.112237,1.1,0.9,1.1,0.9
27,'JEWETT 1',115.0,1,1,1,1,1.02785945,1.270063,1.1,0.9,1.1,0.9
28,'KENNARD 1',115.0,1,1,1,1,1.0281446,0.463066,1.1,0.9,1.1,0.9
29,'KENNARD 2',115.0,1,1,1,1,1.02815092,0.463936,1.1,0.9,1.1,0.9
30,'LOVELADY 1 1',115.0,1,1,1,1,1.02137339,-0.711004,1.1,0.9,1.1,0.9
31,'LOVELADY 2 1',115.0,1,1,1,1,1.02179182,-1.233498,1.1,0.9,1.1,0.9
32,'OAKWOOD 1',115.0,1,1,1,1,1.01632106,0.019878,1.1,0.9,1.1,0.9
33,'STREETMAN 1',115.0,1,1,1,1,1.04281271,4.851763,1.1,0.9,1.1,0.9
34,'TEAGUE 1',115.0,1,1,1,1,1.04177773,4.693851,1.1,0.9,1.1,0.9
35,'TENNESSEE ~1',115.0,1,1,1,1,1.01789701,-0.055342,1.1,0.9,1.1,0.9
36,'TENNESSEE ~2',115.0,1,1,1,1,1.01715589,-0.055571,1.1,0.9,1.1,0.9
37,'GLEN ROSE 1',230.0,1,1,1,1,1.0463084,4.69935,1.1,0.9,1.1,0.9
38,'GLEN ROSE 2',115.0,1,1,1,1,1.04619956,4.197762,1.1,0.9,1.1,0.9
39,'RIO VISTA 1',115.0,1,1,1,1,1.03969383,4.492042,1.1,0.9,1.1,0.9
40,'COMANCHE 1 1',115.0,1,1,1,1,1.03399754,2.970003,1.1,0.9,1.1,0.9
41,'COMANCHE 1 2',115.0,1,1,1,1,1.03397596,2.968202,1.1,0.9,1.1,0.9
42,'COMANCHE 2 1',115.0,1,1,1,1,1.03214777,2.915176,1.1,0.9,1.1,0.9
43,'COMANCHE 2 2',115.0,1,1,1,1,1.03216338,2.91649,1.1,0.9,1.1,0.9
44,'CROSS PLAI~1',115.0,1,1,1,1,1.02659631,1.751463,1.1,0.9,1.1,0.9
45,'DE LEON 1',115.0,1,1,1,1,1.03740394,3.145097,1.1,0.9,1.1,0.9
46,'DUBLIN 1 1',115.0,1,1,1,1,1.04425216,3.723704,1.1,0.9,1.1,0.9
47,'DUBLIN 2 1',230.0,1,1,1,1,1.04526317,4.070857,1.1,0.9,1.1,0.9
48,'DUBLIN 2 2',115.0,1,1,1,1,1.04368937,3.683159,1.1,0.9,1.1,0.9
49,'HICO 1',115.0,1,1,1,1,1.04116607,3.397542,1.1,0.9,1.1,0.9
50,'HICO 2',115.0,1,1,1,1,1.04113948,3.395314,1.1,0.9,1.1,0.9
51,'RISING STA~1',115.0,1,1,1,1,1.02462482,2.126937,1.1,0.9,1.1,0.9
52,'TEMPLE 1 1',115.0,1,1,1,1,1.03728056,1.258696,1.1,0.9,1.1,0.9
53,'TEMPLE 1 2',115.0,1,1,1,1,1.03723669,1.252493,1.1,0.9,1.1,0.9
54,'TEMPLE 2 1',115.0,1,1,1,1,1.0375998,1.479202,1.1,0.9,1.1,0.9
55,'TEMPLE 3 1',115.0,1,1,1,1,1.03722072,1.303411,1.1,0.9,1.1,0.9
56,'TEMPLE 3 2',115.0,1,1,1,1,1.03720212,1.300997,1.1,0.9,1.1,0.9
57,'TEMPLE 4 1',115.0,1,1,1,1,1.01735914,-1.544093,1.1,0.9,1.1,0.9
58,'TEMPLE 5 1',115.0,1,1,1,1,1.01790738,-1.425159,1.1,0.9,1.1,0.9
59,'TEMPLE 6 1',115.0,1,1,1,1,1.0357846,3.218401,1.1,0.9,1.1,0.9
60,'TEMPLE 6 2',115.0,1,1,1,1,1.03576171,3.215275,1.1,0.9,1.1,0.9
61,'TEMPLE 7 1',115.0,1,1,1,1,1.01728594,-1.604803,1.1,0.9,1.1,0.9
62,'BELTON 1 1',115.0,1,1,1,1,1.01686847,-0.537778,1.1,0.9,1.1,0.9
63,'BELTON 2 1',230.0,1,1,1,1,1.03573334,3.160651,1.1,0.9,1.1,0.9
64,'BELTON 2 2',115.0,1,1,1,1,1.0242784,0.442895,1.1,0.9,1.1,0.9
65,'BELTON 3 1',230.0,1,1,1,1,1.03640699,3.322475,1.1,0.9,1.1,0.9
66,'BELTON 3 2',115.0,1,1,1,1,1.01801062,-1.67524,1.1,0.9,1.1,0.9
67,'BELTON 4 1',115.0,1,1,1,1,1.01581299,-0.986548,1.1,0.9,1.1,0.9
68,'CAMERON 1',115.0,1,1,1,1,1.03677773,0.507386,1.1,0.9,1.1,0.9
69,'GATESVILLE~1',115.0,1,1,1,1,1.03325343,2.563844,1.1,0.9,1.1,0.9
70,'GATESVILLE~2',115.0,1,1,1,1,1.03216958,2.401274,1.1,0.9,1.1,0.9
71,'GATESVILLE~3',230.0,1,1,1,1,1.03711176,3.19763,1.1,0.9,1.1,0.9
72,'GATESVILLE~4',115.0,1,1,1,1,1.03496361,2.762893,1.1,0.9,1.1,0.9
73,'GRANGER 1',115.0,1,1,1,1,1.01707518,-1.329777,1.1,0.9,1.1,0.9
74,'JARRELL 1',115.0,1,1,1,1,1.02784598,0.081241,1.1,0.9,1.1,0.9
75,'KEMPNER 1 1',115.0,1,1,1,1,1.0209552,2.668044,1.1,0.9,1.1,0.9
76,'KEMPNER 2 1',115.0,1,1,1,1,1.02515531,3.265544,1.1,0.9,1.1,0.9
77,'KILLEEN 1 1',115.0,1,1,1,1,1.0119766,0.145819,1.1,0.9,1.1,0.9
78,'KILLEEN 2 1',115.0,1,1,1,1,1.01000202,0.861024,1.1,0.9,1.1,0.9
79,'KILLEEN 3 1',115.0,1,1,1,1,1.00906527,0.390789,1.1,0.9,1.1,0.9
80,'KILLEEN 4 1',115.0,1,1,1,1,1.01407015,1.496417,1.1,0.9,1.1,0.9
81,'KILLEEN 5 1',115.0,1,1,1,1,1.01392603,1.549234,1.1,0.9,1.1,0.9
82,'KILLEEN 6 1',115.0,1,1,1,1,1.00744593,0.465056,1.1,0.9,1.1,0.9
83,'KILLEEN 7 1',230.0,1,1,1,1,1.03837657,3.541076,1.1,0.9,1.1,0.9
84,'KILLEEN 7 2',230.0,1,1,1,1,1.0380584,3.547911,1.1,0.9,1.1,0.9
85,'KILLEEN 7 3',115.0,1,1,1,1,1.0367955,3.313648,1.1,0.9,1.1,0.9
86,'KILLEEN 7 ~1',115.0,1,1,1,1,1.0367943,3.313649,1.1,0.9,1.1,0.9
87,'KILLEEN 8 1',115.0,1,1,1,1,1.03377998,3.07782,1.1,0.9,1.1,0.9
88,'FORT HOOD ~1',115.0,1,1,1,1,1.01170421,0.677381,1.1,0.9,1.1,0.9
89,'FORT HOOD ~2',115.0,1,1,1,1,1.00847244,0.640545,1.1,0.9,1.1,0.9
90,'FORT HOOD ~3',115.0,1,1,1,1,1.00844383,0.636107,1.1,0.9,1.1,0.9
91,'FORT HOOD ~4',115.0,1,1,1,1,1.00641978,0.436348,1.1,0.9,1.1,0.9
92,'FORT HOOD ~5',115.0,1,1,1,1,1.0068233,0.438951,1.1,0.9,1.1,0.9
93,'HARKER HEI~1',115.0,1,1,1,1,1.01456845,-0.455447,1.1,0.9,1.1,0.9
94,'KILLEEN 9 1',115.0,1,1,1,1,1.01386595,1.490894,1.1,0.9,1.1,0.9
95,'KILLEEN 10 1',115.0,1,1,1,1,1.0138272,1.146814,1.1,0.9,1.1,0.9
96,'KILLEEN 11 1',115.0,1,1,1,1,1.01501811,1.555403,1.1,0.9,1.1,0.9
97,'KILLEEN 11 2',115.0,1,1,1,1,1.01507664,1.560281,1.1,0.9,1.1,0.9
98,'KILLEEN 12 1',230.0,1,1,1,1,1.03460407,4.818494,1.1,0.9,1.1,0.9
99,'KILLEEN 12~1',230.0,1,1,1,1,1.03460407,4.818494,1.1,0.9,1.1,0.9
100,'KILLEEN 12 2',115.0,1,1,1,1,1.01621068,1.503036,1.1,0.9,1.1,0.9
101,'KILLEEN 12 3',230.0,1,1,1,1,1.03457701,4.814439,1.1,0.9,1.1,0.9
102,'LAMPASAS 1 1',115.0,1,1,1,1,1.03296065,5.409308,1.1,0.9,1.1,0.9
103,'LAMPASAS 2 1',230.0,1,1,1,1,1.03857291,7.671023,1.1,0.9,1.1,0.9
104,'LAMPASAS 2 2',115.0,1,1,1,1,1.03585994,6.120012,1.1,0.9,1.1,0.9
105,'MOODY 1',115.0,1,1,1,1,1.02126598,-0.527002,1.1,0.9,1.1,0.9
106,'MOODY 2',115.0,1,1,1,1,1.02127755,-0.524498,1.1,0.9,1.1,0.9
107,'ROCKDALE 1 1',115.0,1,1,1,1,1.03634369,-0.994374,1.1,0.9,1.1,0.9
108,'ROCKDALE 2 1',115.0,1,1,1,1,1.03589642,-0.90862,1.1,0.9,1.1,0.9
109,'ROCKDALE 3 1',115.0,1,1,1,1,1.03650045,-0.985606,1.1,0.9,1.1,0.9
110,'ROGERS 1',115.0,1,1,1,1,1.03642941,0.770272,1.1,0.9,1.1,0.9
111,'ROSEBUD 1',115.0,1,1,1,1,1.03910398,0.78935,1.1,0.9,1.1,0.9
112,'TAYLOR 1 1',115.0,1,1,1,1,1.01164603,-1.78273,1.1,0.9,1.1,0.9
113,'TAYLOR 2 1',115.0,1,1,1,1,1.00849986,-1.735435,1.1,0.9,1.1,0.9
114,'TAYLOR 3 1',115.0,1,1,1,1,1.01064169,-1.810326,1.1,0.9,1.1,0.9
115,'TAYLOR 3 2',115.0,1,1,1,1,1.01066387,-1.808123,1.1,0.9,1.1,0.9
116,'THORNDALE ~1',115.0,1,1,1,1,1.01096427,-1.846176,1.1,0.9,1.1,0.9
117,'THORNDALE ~2',115.0,1,1,1,1,1.03689468,-0.810675,1.1,0.9,1.1,0.9
118,'TROY 1',115.0,1,1,1,1,1.02723205,0.79523,1.1,0.9,1.1,0.9
119,'CLIFTON 1 1',115.0,1,1,1,1,1.03143811,2.366754,1.1,0.9,1.1,0.9
120,'CLIFTON 2 1',115.0,1,1,1,1,1.03145862,2.432865,1.1,0.9,1.1,0.9
121,'CRAWFORD 1',115.0,1,1,1,1,1.03290355,3.0331,1.1,0.9,1.1,0.9
122,'HILLSBORO ~1',230.0,1,1,1,1,1.04277968,5.546625,1.1,0.9,1.1,0.9
123,'HILLSBORO ~2',115.0,1,1,1,1,1.04261649,5.046221,1.1,0.9,1.1,0.9
124,'HILLSBORO ~3',230.0,1,1,1,1,1.04272211,5.543715,1.1,0.9,1.1,0.9
125,'HILLSBORO ~4',115.0,1,1,1,1,1.03650296,3.979453,1.1,0.9,1.1,0.9
126,'HUBBARD 1',115.0,1,1,1,1,1.03809738,3.671467,1.1,0.9,1.1,0.9
127,'LORENA 1',115.0,1,1,1,1,1.03053069,1.247571,1.1,0.9,1.1,0.9
128,'LOTT 1',115.0,1,1,1,1,1.03011453,1.203572,1.1,0.9,1.1,0.9
129,'LOTT 2',115.0,1,1,1,1,1.03009927,1.201461,1.1,0.9,1.1,0.9
130,'MARLIN 1 1',115.0,1,1,1,1,1.03759909,1.144686,1.1,0.9,1.1,0.9
131,'MARLIN 2 1',115.0,1,1,1,1,1.03475285,1.176786,1.1,0.9,1.1,0.9
132,'MART 1',115.0,1,1,1,1,1.03905594,3.89089,1.1,0.9,1.1,0.9
133,'MERIDIAN 1',115.0,1,1,1,1,1.03104722,2.280028,1.1,0.9,1.1,0.9
134,'MEXIA 1',230.0,1,1,1,1,1.04261577,4.989677,1.1,0.9,1.1,0.9
135,'MEXIA 2',115.0,1,1,1,1,1.04291499,4.22032,1.1,0.9,1.1,0.9
136,'MEXIA 3',230.0,1,1,1,1,1.0425694,4.98008,1.1,0.9,1.1,0.9
137,'WEST 1',115.0,1,1,1,1,1.03793967,3.435321,1.1,0.9,1.1,0.9
138,'WHITNEY 1 1',115.0,1,1,1,1,1.03986061,5.224193,1.1,0.9,1.1,0.9
139,'WHITNEY 2 1',115.0,1,1,1,1,1.03919935,5.011246,1.1,0.9,1.1,0.9
140,'WHITNEY 3 1',115.0,1,1,1,1,1.03751171,4.104246,1.1,0.9,1.1,0.9
141,'WACO 1 1',230.0,1,1,1,1,1.03997838,4.678712,1.1,0.9,1.1,0.9
142,'WACO 1 2',230.0,1,1,1,1,1.03980649,4.66161,1.1,0.9,1.1,0.9
143,'WACO 1 3',115.0,1,1,1,1,1.03717351,3.47198,1.1,0.9,1.1,0.9
144,'WACO 1 4',230.0,1,1,1,1,1.04021382,4.695573,1.1,0.9,1.1,0.9
145,'WACO 2 1',115.0,1,1,1,1,1.03747773,3.482001,1.1,0.9,1.1,0.9
146,'WACO 2 2',115.0,1,1,1,1,1.03744543,3.476449,1.1,0.9,1.1,0.9
147,'WACO 3 1',115.0,1,1,1,1,1.03758144,3.551963,1.1,0.9,1.1,0.9
148,'WACO 4 1',115.0,1,1,1,1,1.03400278,3.14738,1.1,0.9,1.1,0.9
149,'WACO 5 1',230.0,1,1,1,1,1.03926432,4.201977,1.1,0.9,1.1,0.9
150,'WACO 5 2',115.0,1,1,1,1,1.0349828,2.489665,1.1,0.9,1.1,0.9
151,'WACO 6 1',115.0,1,1,1,1,1.03617084,3.364506,1.1,0.9,1.1,0.9
152,'WACO 7 1',115.0,1,1,1,1,1.03323019,2.119601,1.1,0.9,1.1,0.9
153,'WACO 8 1',230.0,1,1,1,1,1.0387857,4.9367,1.1,0.9,1.1,0.9
154,'WACO 8 2',115.0,1,1,1,1,1.03615272,3.674371,1.1,0.9,1.1,0.9
155,'WACO 9 1',115.0,1,1,1,1,1.03572297,3.542151,1.1,0.9,1.1,0.9
156,'WACO 9 2',115.0,1,1,1,1,1.03569436,3.537999,1.1,0.9,1.1,0.9
157,'WACO 10 1',115.0,1,1,1,1,1.0356096,3.4081,1.1,0.9,1.1,0.9
158,'WACO 11 1',115.0,1,1,1,1,1.03245461,1.908253,1.1,0.9,1.1,0.9
159,'WACO 12 1',115.0,1,1,1,1,1.03399754,3.331972,1.1,0.9,1.1,0.9
160,'WACO 13 1',115.0,1,1,1,1,1.03266358,3.019927,1.1,0.9,1.1,0.9
161,'WOODWAY 1 1',115.0,1,1,1,1,1.03243124,3.086243,1.1,0.9,1.1,0.9
162,'WOODWAY 2 1',115.0,1,1,1,1,1.03247762,3.119364,1.1,0.9,1.1,0.9
163,'WOODWAY 2 2',115.0,1,1,1,1,1.03245068,3.116583,1.1,0.9,1.1,0.9
164,'BROWNWOOD ~1',115.0,1,1,1,1,1.02519417,3.050692,1.1,0.9,1.1,0.9
165,'BROWNWOOD ~2',230.0,1,1,1,1,1.03999078,4.765875,1.1,0.9,1.1,0.9
166,'BROWNWOOD ~3',230.0,1,1,1,1,1.03981435,4.752068,1.1,0.9,1.1,0.9
167,'BROWNWOOD ~4',115.0,1,1,1,1,1.02618623,3.338232,1.1,0.9,1.1,0.9
168,'BROWNWOOD ~5',230.0,1,1,1,1,1.03997409,4.762869,1.1,0.9,1.1,0.9
169,'BROWNWOOD ~6',115.0,1,1,1,1,1.0233742,2.576627,1.1,0.9,1.1,0.9
170,'BROWNWOOD ~7',115.0,1,1,1,1,1.02345824,2.583299,1.1,0.9,1.1,0.9
171,'BROWNWOOD ~8',115.0,1,1,1,1,1.02506435,3.009389,1.1,0.9,1.1,0.9
172,'EARLY 1',115.0,1,1,1,1,1.0260998,2.932577,1.1,0.9,1.1,0.9
173,'BRADY 1 1',115.0,1,1,1,1,1.02835631,2.678461,1.1,0.9,1.1,0.9
174,'BRADY 2 1',115.0,1,1,1,1,1.02937639,2.321018,1.1,0.9,1.1,0.9
175,'BRADY 2 2',115.0,1,1,1,1,1.03018379,2.430358,1.1,0.9,1.1,0.9
176,'BRADY 2 3',115.0,1,1,1,1,1.02936053,2.319488,1.1,0.9,1.1,0.9
177,'BRADY 2 3 ~2',230.0,1,1,1,1,1.02936649,2.320223,1.1,0.9,1.1,0.9
178,'COLEMAN 1 1',115.0,1,1,1,1,1.03010714,1.535972,1.1,0.9,1.1,0.9
179,'COLEMAN 1 2',115.0,1,1,1,1,1.03007233,1.531826,1.1,0.9,1.1,0.9
180,'COLEMAN 2 1',115.0,1,1,1,1,1.02922618,1.55499,1.1,0.9,1.1,0.9
181,'MASON 1',115.0,1,1,1,1,1.02434123,3.386471,1.1,0.9,1.1,0.9
182,'ROCHELLE 1',115.0,1,1,1,1,1.03479195,2.251426,1.1,0.9,1.1,0.9
183,'SAN SABA 1',115.0,1,1,1,1,1.03689992,2.697763,1.1,0.9,1.1,0.9
184,'SANTA ANNA 1',115.0,1,1,1,1,1.03361213,1.888499,1.1,0.9,1.1,0.9
185,'CONROE 1 1',115.0,1,1,1,1,0.99609423,-5.819783,1.1,0.9,1.1,0.9
186,'CONROE 2 1',230.0,1,1,1,1,1.01495647,-4.190538,1.1,0.9,1.1,0.9
187,'CONROE 2 2',115.0,1,1,1,1,1.00998473,-5.007414,1.1,0.9,1.1,0.9
188,'CONROE 2 3',230.0,1,1,1,1,1.01517832,-4.169575,1.1,0.9,1.1,0.9
189,'CONROE 3 1',115.0,1,1,1,1,1.01430213,-4.58362,1.1,0.9,1.1,0.9
190,'CONROE 4 1',115.0,1,1,1,1,1.01126003,-4.885978,1.1,0.9,1.1,0.9
191,'CONROE 5 1',115.0,1,1,1,1,1.00809658,-5.20808,1.1,0.9,1.1,0.9
192,'CONROE 6 1',115.0,1,1,1,1,1.01099133,-4.9915,1.1,0.9,1.1,0.9
193,'CONROE 7 1',115.0,1,1,1,1,1.01261449,-4.765709,1.1,0.9,1.1,0.9
194,'CONROE 8 1',115.0,1,1,1,1,0.99911392,-6.245721,1.1,0.9,1.1,0.9
195,'CONROE 9 1',115.0,1,1,1,1,1.00883436,-5.228443,1.1,0.9,1.1,0.9
196,'CONROE 9 1~1',115.0,1,1,1,1,1.0088563,-5.224246,1.1,0.9,1.1,0.9
197,'MONTGOMERY~1',115.0,1,1,1,1,1.01808977,-4.279831,1.1,0.9,1.1,0.9
198,'WILLIS 1 1',115.0,1,1,1,1,1.0164839,-4.299087,1.1,0.9,1.1,0.9
199,'WILLIS 2 1',115.0,1,1,1,1,1.02117884,-3.434631,1.1,0.9,1.1,0.9
200,'WILLIS 3 1',115.0,1,1,1,1,1.01679456,-4.346147,1.1,0.9,1.1,0.9
...
0 / END OF BUS DATA BEGIN LOAD DATA
1,'1',1,1,1,3.689,0.948,0.0,0.0,0.0,0.0,1,1,0
2,'1',1,1,1,2.582,0.101,0.0,0.0,0.0,0.0,1,1,0
3,'1',1,1,1,9.721,0.759,0.0,0.0,0.0,0.0,1,1,0
5,'1',1,1,1,8.193,3.061,0.0,0.0,0.0,0.0,1,1,0
6,'1',1,1,1,3.813,1.916,0.0,0.0,0.0,0.0,1,1,0
7,'1',1,1,1,6.966,3.12,0.0,0.0,0.0,0.0,1,1,0
9,'1',1,1,1,6.546,1.086,0.0,0.0,0.0,0.0,1,1,0
10,'1',1,1,1,5.131,0.602,0.0,0.0,0.0,0.0,1,1,0
11,'1',1,1,1,9.283,3.277,0.0,0.0,0.0,0.0,1,1,0
14,'1',1,1,1,12.762,5.261,0.0,0.0,0.0,0.0,1,1,0
15,'1',1,1,1,5.446,1.073,0.0,0.0,0.0,0.0,1,1,0
16,'1',1,1,1,2.991,0.956,0.0,0.0,0.0,0.0,1,1,0
17,'1',1,1,1,3.161,0.573,0.0,0.0,0.0,0.0,1,1,0
21,'1',1,1,1,14.313,0.545,0.0,0.0,0.0,0.0,1,1,0
23,'1',1,1,1,5.172,1.271,0.0,0.0,0.0,0.0,1,1,0
24,'1',1,1,1,4.383,0.979,0.0,0.0,0.0,0.0,1,1,0
25,'1',1,1,1,5.946,0.519,0.0,0.0,0.0,0.0,1,1,0
26,'1',1,1,1,3.044,0.414,0.0,0.0,0.0,0.0,1,1,0
27,'1',1,1,1,4.471,0.783,0.0,0.0,0.0,0.0,1,1,0
28,'1',1,1,1,1.618,0.245,0.0,0.0,0.0,0.0,1,1,0
30,'1',1,1,1,3.569,0.503,0.0,0.0,0.0,0.0,1,1,0
31,'1',1,1,1,1.977,0.417,0.0,0.0,0.0,0.0,1,1,0
32,'1',1,1,1,3.762,1.115,0.0,0.0,0.0,0.0,1,1,0
33,'1',1,1,1,1.714,0.5,0.0,0.0,0.0,0.0,1,1,0
34,'1',1,1,1,7.043,1.905,0.0,0.0,0.0,0.0,1,1,0
35,'1',1,1,1,6.139,1.913,0.0,0.0,0.0,0.0,1,1,0
36,'1',1,1,1,2.199,0.872,0.0,0.0,0.0,0.0,1,1,0
38,'1',1,1,1,11.632,0.781,0.0,0.0,0.0,0.0,1,1,0
39,'1',1,1,1,4.762,1.027,0.0,0.0,0.0,0.0,1,1,0
41,'1',1,1,1,3.265,1.134,0.0,0.0,0.0,0.0,1,1,0
42,'1',1,1,1,2.601,0.912,0.0,0.0,0.0,0.0,1,1,0
44,'1',1,1,1,3.177,0.969,0.0,0.0,0.0,0.0,1,1,0
45,'1',1,1,1,5.973,1.745,0.0,0.0,0.0,0.0,1,1,0
46,'1',1,1,1,2.619,0.493,0.0,0.0,0.0,0.0,1,1,0
48,'1',1,1,1,6.375,1.866,0.0,0.0,0.0,0.0,1,1,0
50,'1',1,1,1,3.871,1.451,0.0,0.0,0.0,0.0,1,1,0
51,'1',1,1,1,2.482,0.669,0.0,0.0,0.0,0.0,1,1,0
53,'1',1,1,1,11.015,1.237,0.0,0.0,0.0,0.0,1,1,0
54,'1',1,1,1,3.576,1.545,0.0,0.0,0.0,0.0,1,1,0
56,'1',1,1,1,4.038,0.684,0.0,0.0,0.0,0.0,1,1,0
57,'1',1,1,1,7.634,1.625,0.0,0.0,0.0,0.0,1,1,0
58,'1',1,1,1,14.025,1.883,0.0,0.0,0.0,0.0,1,1,0
60,'1',1,1,1,5.426,0.902,0.0,0.0,0.0,0.0,1,1,0
61,'1',1,1,1,12.067,3.338,0.0,0.0,0.0,0.0,1,1,0
62,'1',1,1,1,7.494,0.74,0.0,0.0,0.0,0.0,1,1,0
64,'1',1,1,1,19.867,3.831,0.0,0.0,0.0,0.0,1,1,0
66,'1',1,1,1,19.66,4.134,0.0,0.0,0.0,0.0,1,1,0
67,'1',1,1,1,11.962,7.756,0.0,0.0,0.0,0.0,1,1,0
68,'1',1,1,1,7.036,0.792,0.0,0.0,0.0,0.0,1,1,0
69,'1',1,1,1,4.263,1.83,0.0,0.0,0.0,0.0,1,1,0
70,'1',1,1,1,5.207,1.777,0.0,0.0,0.0,0.0,1,1,0
72,'1',1,1,1,7.186,2.75,0.0,0.0,0.0,0.0,1,1,0
73,'1',1,1,1,4.659,0.959,0.0,0.0,0.0,0.0,1,1,0
74,'1',1,1,1,3.024,0.326,0.0,0.0,0.0,0.0,1,1,0
75,'1',1,1,1,1.798,0.482,0.0,0.0,0.0,0.0,1,1,0
76,'1',1,1,1,2.203,0.858,0.0,0.0,0.0,0.0,1,1,0
76,'2',1,1,1,2.085,0.781,0.0,0.0,0.0,0.0,1,1,0
77,'1',1,1,1,12.863,2.177,0.0,0.0,0.0,0.0,1,1,0
78,'1',1,1,1,3.603,1.175,0.0,0.0,0.0,0.0,1,1,0
79,'1',1,1,1,9.918,7.918,0.0,0.0,0.0,0.0,1,1,0
80,'1',1,1,1,9.08,4.013,0.0,0.0,0.0,0.0,1,1,0
81,'1',1,1,1,8.744,3.861,0.0,0.0,0.0,0.0,1,1,0
81,'2',1,1,1,1.59,0.629,0.0,0.0,0.0,0.0,1,1,0
82,'1',1,1,1,8.285,5.25,0.0,0.0,0.0,0.0,1,1,0
87,'1',1,1,1,6.493,3.217,0.0,0.0,0.0,0.0,1,1,0
88,'1',1,1,1,6.389,2.048,0.0,0.0,0.0,0.0,1,1,0
90,'1',1,1,1,6.944,0.984,0.0,0.0,0.0,0.0,1,1,0
91,'1',1,1,1,6.429,1.456,0.0,0.0,0.0,0.0,1,1,0
91,'2',1,1,1,6.147,1.571,0.0,0.0,0.0,0.0,1,1,0
93,'1',1,1,1,21.365,4.575,0.0,0.0,0.0,0.0,1,1,0
94,'1',1,1,1,10.806,2.857,0.0,0.0,0.0,0.0,1,1,0
95,'1',1,1,1,10.906,3.014,0.0,0.0,0.0,0.0,1,1,0
96,'1',1,1,1,9.487,3.127,0.0,0.0,0.0,0.0,1,1,0
101,'1',1,1,1,7.311,1.177,0.0,0.0,0.0,0.0,1,1,0
102,'1',1,1,1,3.71,0.983,0.0,0.0,0.0,0.0,1,1,0
104,'1',1,1,1,3.277,2.259,0.0,0.0,0.0,0.0,1,1,0
104,'2',1,1,1,2.686,0.656,0.0,0.0,0.0,0.0,1,1,0
105,'1',1,1,1,3.98,0.261,0.0,0.0,0.0,0.0,1,1,0
107,'1',1,1,1,2.663,0.603,0.0,0.0,0.0,0.0,1,1,0
107,'2',1,1,1,0.462,0.231,0.0,0.0,0.0,0.0,1,1,0
108,'1',1,1,1,2.767,0.614,0.0,0.0,0.0,0.0,1,1,0
108,'2',1,1,1,1.755,0.235,0.0,0.0,0.0,0.0,1,1,0
109,'1',1,1,1,3.251,1.09,0.0,0.0,0.0,0.0,1,1,0
110,'1',1,1,1,3.786,0.287,0.0,0.0,0.0,0.0,1,1,0
111,'1',1,1,1,2.582,0.436,0.0,0.0,0.0,0.0,1,1,0
112,'1',1,1,1,5.692,0.454,0.0,0.0,0.0,0.0,1,1,0
112,'2',1,1,1,3.407,0.785,0.0,0.0,0.0,0.0,1,1,0
113,'1',1,1,1,3.214,0.671,0.0,0.0,0.0,0.0,1,1,0
114,'1',1,1,1,3.264,1.163,0.0,0.0,0.0,0.0,1,1,0
114,'2',1,1,1,0.335,0.02,0.0,0.0,0.0,0.0,1,1,0
116,'1',1,1,1,2.49,0.093,0.0,0.0,0.0,0.0,1,1,0
117,'1',1,1,1,1.737,0.197,0.0,0.0,0.0,0.0,1,1,0
118,'1',1,1,1,6.571,2.364,0.0,0.0,0.0,0.0,1,1,0
119,'1',1,1,1,4.14,1.544,0.0,0.0,0.0,0.0,1,1,0
120,'1',1,1,1,5.947,1.45,0.0,0.0,0.0,0.0,1,1,0
121,'1',1,1,1,5.985,2.537,0.0,0.0,0.0,0.0,1,1,0
124,'1',1,1,1,6.182,4.053,0.0,0.0,0.0,0.0,1,1,0
125,'1',1,1,1,10.362,3.5,0.0,0.0,0.0,0.0,1,1,0
126,'1',1,1,1,3.675,2.096,0.0,0.0,0.0,0.0,1,1,0
127,'1',1,1,1,2.174,0.757,0.0,0.0,0.0,0.0,1,1,0
127,'2',1,1,1,0.615,0.41,0.0,0.0,0.0,0.0,1,1,0
129,'1',1,1,1,3.815,0.479,0.0,0.0,0.0,0.0,1,1,0
130,'1',1,1,1,4.174,0.432,0.0,0.0,0.0,0.0,1,1,0
131,'1',1,1,1,6.397,1.446,0.0,0.0,0.0,0.0,1,1,0
132,'1',1,1,1,4.205,0.959,0.0,0.0,0.0,0.0,1,1,0
133,'1',1,1,1,5.17,1.184,0.0,0.0,0.0,0.0,1,1,0
136,'1',1,1,1,16.374,0.509,0.0,0.0,0.0,0.0,1,1,0
137,'1',1,1,1,8.751,0.326,0.0,0.0,0.0,0.0,1,1,0
138,'1',1,1,1,3.297,0.613,0.0,0.0,0.0,0.0,1,1,0
139,'1',1,1,1,4.578,2.238,0.0,0.0,0.0,0.0,1,1,0
140,'1',1,1,1,4.179,1.174,0.0,0.0,0.0,0.0,1,1,0
143,'1',1,1,1,25.573,0.762,0.0,0.0,0.0,0.0,1,1,0
146,'1',1,1,1,9.704,1.109,0.0,0.0,0.0,0.0,1,1,0
147,'1',1,1,1,10.991,1.538,0.0,0.0,0.0,0.0,1,1,0
148,'1',1,1,1,9.088,3.959,0.0,0.0,0.0,0.0,1,1,0
148,'2',1,1,1,2.166,0.094,0.0,0.0,0.0,0.0,1,1,0
150,'1',1,1,1,10.367,3.31,0.0,0.0,0.0,0.0,1,1,0
151,'1',1,1,1,7.337,0.558,0.0,0.0,0.0,0.0,1,1,0
151,'2',1,1,1,0.781,0.197,0.0,0.0,0.0,0.0,1,1,0
152,'1',1,1,1,10.448,1.928,0.0,0.0,0.0,0.0,1,1,0
154,'1',1,1,1,6.089,1.493,0.0,0.0,0.0,0.0,1,1,0
154,'2',1,1,1,4.922,1.314,0.0,0.0,0.0,0.0,1,1,0
156,'1',1,1,1,7.439,1.091,0.0,0.0,0.0,0.0,1,1,0
157,'1',1,1,1,12.23,2.433,0.0,0.0,0.0,0.0,1,1,0
158,'1',1,1,1,18.173,3.965,0.0,0.0,0.0,0.0,1,1,0
159,'1',1,1,1,11.698,0.694,0.0,0.0,0.0,0.0,1,1,0
160,'1',1,1,1,17.437,0.254,0.0,0.0,0.0,0.0,1,1,0
161,'1',1,1,1,15.871,6.584,0.0,0.0,0.0,0.0,1,1,0
163,'1',1,1,1,5.253,1.546,0.0,0.0,0.0,0.0,1,1,0
164,'1',1,1,1,7.392,0.478,0.0,0.0,0.0,0.0,1,1,0
167,'1',1,1,1,5.076,0.521,0.0,0.0,0.0,0.0,1,1,0
169,'1',1,1,1,12.383,4.823,0.0,0.0,0.0,0.0,1,1,0
171,'1',1,1,1,9.025,2.832,0.0,0.0,0.0,0.0,1,1,0
171,'2',1,1,1,0.876,0.074,0.0,0.0,0.0,0.0,1,1,0
172,'1',1,1,1,6.132,1.283,0.0,0.0,0.0,0.0,1,1,0
173,'1',1,1,1,3.291,0.205,0.0,0.0,0.0,0.0,1,1,0
176,'1',1,1,1,3.926,1.51,0.0,0.0,0.0,0.0,1,1,0
179,'1',1,1,1,7.825,1.361,0.0,0.0,0.0,0.0,1,1,0
180,'1',1,1,1,2.185,0.292,0.0,0.0,0.0,0.0,1,1,0
181,'1',1,1,1,3.377,0.791,0.0,0.0,0.0,0.0,1,1,0
182,'1',1,1,1,1.236,0.221,0.0,0.0,0.0,0.0,1,1,0
183,'1',1,1,1,4.522,1.525,0.0,0.0,0.0,0.0,1,1,0
184,'1',1,1,1,1.758,0.338,0.0,0.0,0.0,0.0,1,1,0
185,'1',1,1,1,8.87,2.587,0.0,0.0,0.0,0.0,1,1,0
187,'1',1,1,1,6.476,1.153,0.0,0.0,0.0,0.0,1,1,0
187,'2',1,1,1,3.681,0.377,0.0,0.0,0.0,0.0,1,1,0
189,'1',1,1,1,6.6,0.388,0.0,0.0,0.0,0.0,1,1,0
189,'2',1,1,1,5.106,0.446,0.0,0.0,0.0,0.0,1,1,0
190,'1',1,1,1,8.228,1.433,0.0,0.0,0.0,0.0,1,1,0
190,'2',1,1,1,3.319,0.838,0.0,0.0,0.0,0.0,1,1,0
191,'1',1,1,1,5.003,1.599,0.0,0.0,0.0,0.0,1,1,0
191,'2',1,1,1,4.276,0.841,0.0,0.0,0.0,0.0,1,1,0
192,'1',1,1,1,4.657,0.174,0.0,0.0,0.0,0.0,1,1,0
193,'1',1,1,1,4.666,2.306,0.0,0.0,0.0,0.0,1,1,0
194,'1',1,1,1,26.88,7.764,0.0,0.0,0.0,0.0,1,1,0
195,'1',1,1,1,15.698,2.543,0.0,0.0,0.0,0.0,1,1,0
197,'1',1,1,1,3.731,1.137,0.0,0.0,0.0,0.0,1,1,0
198,'1',1,1,1,3.806,1.377,0.0,0.0,0.0,0.0,1,1,0
199,'1',1,1,1,4.176,0.744,0.0,0.0,0.0,0.0,1,1,0
200,'1',1,1,1,5.36,1.64,0.0,0.0,0.0,0.0,1,1,0
200,'2',1,1,1,4.218,0.023,0.0,0.0,0.0,0.0,1,1,0
203,'1',1,1,1,6.685,3.066,0.0,0.0,0.0,0.0,1,1,0
203,'2',1,1,1,1.577,0.251,0.0,0.0,0.0,0.0,1,1,0
204,'1',1,1,1,5.976,1.83,0.0,0.0,0.0,0.0,1,1,0
205,'1',1,1,1,7.553,1.216,0.0,0.0,0.0,0.0,1,1,0
206,'1',1,1,1,8.306,1.371,0.0,0.0,0.0,0.0,1,1,0
207,'1',1,1,1,21.406,6.55,0.0,0.0,0.0,0.0,1,1,0
210,'1',1,1,1,17.2,6.358,0.0,0.0,0.0,0.0,1,1,0
212,'1',1,1,1,20.866,0.37,0.0,0.0,0.0,0.0,1,1,0
213,'1',1,1,1,11.085,0.712,0.0,0.0,0.0,0.0,1,1,0
214,'1',1,1,1,1.72,0.332,0.0,0.0,0.0,0.0,1,1,0
214,'2',1,1,1,2.066,0.059,0.0,0.0,0.0,0.0,1,1,0
218,'1',1,1,1,12.316,1.457,0.0,0.0,0.0,0.0,1,1,0
219,'1',1,1,1,3.357,0.119,0.0,0.0,0.0,0.0,1,1,0
219,'2',1,1,1,6.579,0.904,0.0,0.0,0.0,0.0,1,1,0
220,'1',1,1,1,9.597,1.696,0.0,0.0,0.0,0.0,1,1,0
221,'1',1,1,1,8.415,3.192,0.0,0.0,0.0,0.0,1,1,0
222,'1',1,1,1,8.044,0.997,0.0,0.0,0.0,0.0,1,1,0
224,'1',1,1,1,8.679,1.036,0.0,0.0,0.0,0.0,1,1,0
226,'1',1,1,1,9.396,2.3,0.0,0.0,0.0,0.0,1,1,0
226,'2',1,1,1,5.99,4.44,0.0,0.0,0.0,0.0,1,1,0
228,'1',1,1,1,10.448,2.188,0.0,0.0,0.0,0.0,1,1,0
228,'2',1,1,1,9.065,2.481,0.0,0.0,0.0,0.0,1,1,0
229,'1',1,1,1,20.234,7.618,0.0,0.0,0.0,0.0,1,1,0
232,'1',1,1,1,22.996,14.889,0.0,0.0,0.0,0.0,1,1,0
236,'1',1,1,1,35.337,7.969,0.0,0.0,0.0,0.0,1,1,0
237,'1',1,1,1,8.26,2.751,0.0,0.0,0.0,0.0,1,1,0
238,'1',1,1,1,16.927,5.808,0.0,0.0,0.0,0.0,1,1,0
239,'1',1,1,1,9.07,2.076,0.0,0.0,0.0,0.0,1,1,0
240,'1',1,1,1,4.021,1.175,0.0,0.0,0.0,0.0,1,1,0
240,'2',1,1,1,1.118,0.094,0.0,0.0,0.0,0.0,1,1,0
241,'1',1,1,1,3.457,0.753,0.0,0.0,0.0,0.0,1,1,0
241,'2',1,1,1,1.924,0.419,0.0,0.0,0.0,0.0,1,1,0
242,'1',1,1,1,16.793,3.121,0.0,0.0,0.0,0.0,1,1,0
243,'1',1,1,1,22.808,8.211,0.0,0.0,0.0,0.0,1,1,0
244,'1',1,1,1,8.944,2.129,0.0,0.0,0.0,0.0,1,1,0
245,'1',1,1,1,13.785,4.054,0.0,0.0,0.0,0.0,1,1,0
246,'1',1,1,1,15.036,3.36,0.0,0.0,0.0,0.0,1,1,0
247,'1',1,1,1,4.404,1.967,0.0,0.0,0.0,0.0,1,1,0
248,'1',1,1,1,6.765,0.414,0.0,0.0,0.0,0.0,1,1,0
...
0 / END OF LOAD DATA BEGIN FIXED SHUNT DATA
0 / END OF FIXED SHUNT DATA BEGIN GENERATOR DATA
476,'1',0.0,0.0,431.0,-258.6,1.05,473,1109.88,0.0,1.0,0.0,0.0,1.0,0,100.0,656.68,454.19,1,1.0,0,1.0,0,1.0,0,1.0,0,1.0
477,'1',0.0,0.0,431.0,-258.6,1.05,473,1109.88,0.0,1.0,0.0,0.0,1.0,0,100.0,656.68,230.89,1,1.0,0,1.0,0,1.0,0,1.0,0,1.0
481,'1',0.0,0.0,94.84,-66.388,1.04,0,223.6,0.0,1.0,0.0,0.0,1.0,0,100.0,132.29,70.02,1,1.0,0,1.0,0,1.0,0,1.0,0,1.0
482,'1',115.912,94.84,94.84,-56.904,1.048,478,223.6,0.0,1.0,0.0,0.0,1.0,1,100.0,132.29,30.21,1,1.0,0,1.0,0,1.0,0,1.0,0,1.0
483,'1',121.805,94.84,94.84,-56.904,1.048,478,223.6,0.0,1.0,0.0,0.0,1.0,1,100.0,132.29,60.25,1,1.0,0,1.0,0,1.0,0,1.0,0,1.0
487,'1',0.0,0.0,98.75,-59.25,1.046,484,232.8,0.0,1.0,0.0,0.0,1.0,0,100.0,137.74,96.35,1,1.0,0,1.0,0,1.0,0,1.0,0,1.0
488,'1',0.0,0.0,98.75,-59.25,1.046,484,232.8,0.0,1.0,0.0,0.0,1.0,0,100.0,137.74,65.16,1,1.0,0,1.0,0,1.0,0,1.0,0,1.0
493,'1',0.0,0.0,119.58,-71.748,1.053,490,281.91,0.0,1.0,0.0,0.0,1.0,0,100.0,166.8,69.49,1,1.0,0,1.0,0,1.0,0,1.0,0,1.0
494,'1',0.0,0.0,119.58,-71.748,1.053,490,281.91,0.0,1.0,0.0,0.0,1.0,0,100.0,166.8,87.1,1,1.0,0,1.0,0,1.0,0,1.0,0,1.0
495,'1',0.0,0.0,119.58,-71.748,1.053,490,281.91,0.0,1.0,0.0,0.0,1.0,0,100.0,166.8,94.07,1,1.0,0,1.0,0,1.0,0,1.0,0,1.0
496,'1',0.0,0.0,119.58,-71.748,1.053,490,281.91,0.0,1.0,0.0,0.0,1.0,0,100.0,166.8,75.5,1,1.0,0,1.0,0,1.0,0,1.0,0,1.0
500,'1',0.0,0.0,108.42,-75.894,1.04,0,255.6,0.0,1.0,0.0,0.0,1.0,0,100.0,151.23,41.0,1,1.0,0,1.0,0,1.0,0,1.0,0,1.0
501,'1',0.0,0.0,108.42,-65.052,1.046,497,255.6,0.0,1.0,0.0,0.0,1.0,0,100.0,151.23,32.83,1,1.0,0,1.0,0,1.0,0,1.0,0,1.0
502,'1',0.0,0.0,108.42,-75.894,1.04,0,255.6,0.0,1.0,0.0,0.0,1.0,0,100.0,151.23,55.54,1,1.0,0,1.0,0,1.0,0,1.0,0,1.0
507,'1',0.0,0.0,138.14,-96.698,1.042,504,325.68,0.0,1.0,0.0,0.0,1.0,0,100.0,192.69,85.62,1,1.0,0,1.0,0,1.0,0,1.0,0,1.0
508,'1',0.0,0.0,138.14,-96.698,1.042,504,325.68,0.0,1.0,0.0,0.0,1.0,0,100.0,192.69,92.54,1,1.0,0,1.0,0,1.0,0,1.0,0,1.0
509,'1',301.874,-4.032,5.76,-4.032,1.04,0,18.0,0.0,1.0,0.0,0.0,1.0,1,100.0,400.0,4.0,1,1.0,0,1.0,0,1.0,0,1.0,0,1.0
510,'1',366.086,-4.921,7.03,-4.921,1.04,0,21.96,0.0,1.0,0.0,0.0,1.0,1,100.0,400.0,6.4,1,1.0,0,1.0,0,1.0,0,1.0,0,1.0
510,'2',366.086,-4.921,7.03,-4.921,1.04,0,21.96,0.0,1.0,0.0,0.0,1.0,1,100.0,400.0,7.7,1,1.0,0,1.0,0,1.0,0,1.0,0,1.0
510,'3',366.086,-4.921,7.03,-4.921,1.04,0,21.96,0.0,1.0,0.0,0.0,1.0,1,100.0,400.0,2.6,1,1.0,0,1.0,0,1.0,0,1.0,0,1.0
513,'1',23.534,13.82,13.82,-9.674,1.04,0,43.2,0.0,1.0,0.0,0.0,1.0,1,100.0,25.56,9.4,1,1.0,0,1.0,0,1.0,0,1.0,0,1.0
513,'2',23.534,13.82,13.82,-9.674,1.04,0,43.2,0.0,1.0,0.0,0.0,1.0,1,100.0,25.56,9.56,1,1.0,0,1.0,0,1.0,0,1.0,0,1.0
514,'1',23.534,13.82,13.82,-9.674,1.04,0,43.2,0.0,1.0,0.0,0.0,1.0,1,100.0,25.56,14.14,1,1.0,0,1.0,0,1.0,0,1.0,0,1.0
515,'1',5.884,3.46,3.46,-2.422,1.04,0,10.8,0.0,1.0,0.0,0.0,1.0,1,100.0,6.39,1.46,1,1.0,0,1.0,0,1.0,0,1.0,0,1.0
515,'2',5.884,3.46,3.46,-2.422,1.04,0,10.8,0.0,1.0,0.0,0.0,1.0,1,100.0,6.39,4.17,1,1.0,0,1.0,0,1.0,0,1.0,0,1.0
520,'1',0.0,0.0,104.97,-73.479,1.04,0,247.48,0.0,1.0,0.0,0.0,1.0,0,100.0,146.42,75.93,1,1.0,0,1.0,0,1.0,0,1.0,0,1.0
521,'1',0.0,0.0,104.97,-73.479,1.046,517,247.48,0.0,1.0,0.0,0.0,1.0,0,100.0,146.42,99.39,1,1.0,0,1.0,0,1.0,0,1.0,0,1.0
522,'1',0.0,0.0,104.97,-73.479,1.046,517,247.48,0.0,1.0,0.0,0.0,1.0,0,100.0,146.42,71.07,1,1.0,0,1.0,0,1.0,0,1.0,0,1.0
523,'1',33.598,19.793,26.16,-18.312,1.04,0,61.68,0.0,1.0,0.0,0.0,1.0,1,100.0,36.49,20.44,1,1.0,0,1.0,0,1.0,0,1.0,0,1.0
523,'2',33.598,19.793,26.16,-18.312,1.04,0,61.68,0.0,1.0,0.0,0.0,1.0,1,100.0,36.49,5.59,1,1.0,0,1.0,0,1.0,0,1.0,0,1.0
523,'3',33.598,19.793,26.16,-18.312,1.04,0,61.68,0.0,1.0,0.0,0.0,1.0,1,100.0,36.49,15.43,1,1.0,0,1.0,0,1.0,0,1.0,0,1.0
523,'4',33.598,19.793,26.16,-18.312,1.04,0,61.68,0.0,1.0,0.0,0.0,1.0,1,100.0,36.49,13.1,1,1.0,0,1.0,0,1.0,0,1.0,0,1.0
523,'5',33.598,19.793,26.16,-18.312,1.04,0,61.68,0.0,1.0,0.0,0.0,1.0,1,100.0,36.49,21.71,1,1.0,0,1.0,0,1.0,0,1.0,0,1.0
523,'6',33.598,19.793,26.16,-18.312,1.04,0,61.68,0.0,1.0,0.0,0.0,1.0,1,100.0,36.49,10.5,1,1.0,0,1.0,0,1.0,0,1.0,0,1.0
527,'1',0.0,0.0,136.28,-95.396,1.05,524,321.28,0.0,1.0,0.0,0.0,1.0,0,100.0,190.09,41.46,1,1.0,0,1.0,0,1.0,0,1.0,0,1.0
528,'1',0.0,0.0,136.28,-95.396,1.05,524,321.28,0.0,1.0,0.0,0.0,1.0,0,100.0,190.09,77.16,1,1.0,0,1.0,0,1.0,0,1.0,0,1.0
529,'1',0.0,0.0,136.28,-95.396,1.05,524,321.28,0.0,1.0,0.0,0.0,1.0,0,100.0,190.09,95.47,1,1.0,0,1.0,0,1.0,0,1.0,0,1.0
531,'1',10.92,8.5,8.5,-5.95,1.04,0,20.04,0.0,1.0,0.0,0.0,1.0,1,100.0,11.86,4.98,1,1.0,0,1.0,0,1.0,0,1.0,0,1.0
533,'1',10.92,8.5,8.5,-5.95,1.04,0,20.04,0.0,1.0,0.0,0.0,1.0,1,100.0,11.86,8.28,1,1.0,0,1.0,0,1.0,0,1.0,0,1.0
533,'2',10.92,8.5,8.5,-5.95,1.04,0,20.04,0.0,1.0,0.0,0.0,1.0,1,100.0,11.86,6.63,1,1.0,0,1.0,0,1.0,0,1.0,0,1.0
533,'3',14.382,11.2,11.2,-7.84,1.04,0,26.4,0.0,1.0,0.0,0.0,1.0,1,100.0,15.62,7.83,1,1.0,0,1.0,0,1.0,0,1.0,0,1.0
536,'1',0.0,0.0,0.76,-0.532,1.04,535,100.0,0.0,1.0,0.0,0.0,1.0,0,100.0,1.06,0.16,1,1.0,0,1.0,0,1.0,0,1.0,0,1.0
536,'2',0.0,0.0,3.05,-2.135,1.04,535,100.0,0.0,1.0,0.0,0.0,1.0,0,100.0,4.26,2.82,1,1.0,0,1.0,0,1.0,0,1.0,0,1.0
537,'1',1.375,1.17,1.17,-0.819,1.04,0,2.76,0.0,1.0,0.0,0.0,1.0,1,100.0,1.63,0.75,1,1.0,0,1.0,0,1.0,0,1.0,0,1.0
537,'2',2.46,2.34,2.34,-1.638,1.04,0,5.52,0.0,1.0,0.0,0.0,1.0,1,100.0,3.27,1.21,1,1.0,0,1.0,0,1.0,0,1.0,0,1.0
537,'7',16.62,12.94,12.94,-9.058,1.04,0,30.5,0.0,1.0,0.0,0.0,1.0,1,100.0,18.05,4.65,1,1.0,0,1.0,0,1.0,0,1.0,0,1.0
538,'3',0.0,0.0,3.05,-2.135,1.04,537,100.0,0.0,1.0,0.0,0.0,1.0,0,100.0,4.26,1.79,1,1.0,0,1.0,0,1.0,0,1.0,0,1.0
538,'4',0.0,0.0,12.94,-9.058,1.04,537,100.0,0.0,1.0,0.0,0.0,1.0,0,100.0,18.05,3.9,1,1.0,0,1.0,0,1.0,0,1.0,0,1.0
538,'5',0.0,0.0,12.94,-9.058,1.04,537,100.0,0.0,1.0,0.0,0.0,1.0,0,100.0,18.05,11.14,1,1.0,0,1.0,0,1.0,0,1.0,0,1.0
538,'6',0.0,0.0,12.94,-9.058,1.04,537,100.0,0.0,1.0,0.0,0.0,1.0,0,100.0,18.05,4.53,1,1.0,0,1.0,0,1.0,0,1.0,0,1.0
538,'8',0.0,0.0,12.94,-9.058,1.04,537,100.0,0.0,1.0,0.0,0.0,1.0,0,100.0,18.05,4.12,1,1.0,0,1.0,0,1.0,0,1.0,0,1.0
538,'9',0.0,0.0,12.94,-9.058,1.04,537,100.0,0.0,1.0,0.0,0.0,1.0,0,100.0,18.05,3.18,1,1.0,0,1.0,0,1.0,0,1.0,0,1.0
542,'1',0.0,0.0,184.77,-129.339,1.034,540,435.6,0.0,1.0,0.0,0.0,1.0,0,100.0,257.73,81.68,1,1.0,0,1.0,0,1.0,0,1.0,0,1.0
543,'1',0.0,0.0,184.77,-129.339,1.034,540,435.6,0.0,1.0,0.0,0.0,1.0,0,100.0,257.73,155.03,1,1.0,0,1.0,0,1.0,0,1.0,0,1.0
544,'1',32.097,8.462,24.99,-17.493,1.04,0,58.92,0.0,1.0,0.0,0.0,1.0,1,100.0,34.86,20.93,1,1.0,0,1.0,0,1.0,0,1.0,0,1.0
544,'2',32.097,8.462,24.99,-17.493,1.04,0,58.92,0.0,1.0,0.0,0.0,1.0,1,100.0,34.86,20.35,1,1.0,0,1.0,0,1.0,0,1.0,0,1.0
548,'1',0.0,0.0,276.52,-165.912,1.046,545,712.08,0.0,1.0,0.0,0.0,1.0,0,100.0,421.31,215.89,1,1.0,0,1.0,0,1.0,0,1.0,0,1.0
549,'1',0.0,0.0,276.52,-165.912,1.046,545,712.08,0.0,1.0,0.0,0.0,1.0,0,100.0,421.31,265.82,1,1.0,0,1.0,0,1.0,0,1.0,0,1.0
554,'1',68.642,-4.155,53.44,-37.408,1.04,0,126.0,0.0,1.0,0.0,0.0,1.0,1,100.0,74.55,44.25,1,1.0,0,1.0,0,1.0,0,1.0,0,1.0
559,'1',0.0,0.0,211.33,-126.798,1.053,556,544.2,0.0,1.0,0.0,0.0,1.0,0,100.0,321.99,123.53,1,1.0,0,1.0,0,1.0,0,1.0,0,1.0
561,'1',13.664,-4.649,8.03,-5.621,1.04,0,25.08,0.0,1.0,0.0,0.0,1.0,1,100.0,14.84,9.39,1,1.0,0,1.0,0,1.0,0,1.0,0,1.0
562,'2',0.0,0.0,8.03,-5.621,1.04,561,100.0,0.0,1.0,0.0,0.0,1.0,0,100.0,14.84,7.13,1,1.0,0,1.0,0,1.0,0,1.0,0,1.0
566,'1',0.0,0.0,308.26,-184.956,1.048,563,793.8,0.0,1.0,0.0,0.0,1.0,0,100.0,469.67,227.74,1,1.0,0,1.0,0,1.0,0,1.0,0,1.0
567,'1',14.382,-5.915,8.45,-5.915,1.04,0,26.4,0.0,1.0,0.0,0.0,1.0,1,100.0,15.62,7.95,1,1.0,0,1.0,0,1.0,0,1.0,0,1.0
568,'1',12.339,5.747,8.45,-5.915,1.04,0,26.4,0.0,1.0,0.0,0.0,1.0,1,100.0,15.62,6.36,1,1.0,0,1.0,0,1.0,0,1.0,0,1.0
573,'1',0.0,0.0,87.89,-61.523,1.045,570,207.2,0.0,1.0,0.0,0.0,1.0,0,100.0,122.6,52.76,1,1.0,0,1.0,0,1.0,0,1.0,0,1.0
574,'1',105.885,-5.893,87.89,-61.523,1.04,0,207.2,0.0,1.0,0.0,0.0,1.0,1,100.0,122.6,39.78,1,1.0,0,1.0,0,1.0,0,1.0,0,1.0
575,'1',106.613,-6.893,87.89,-61.523,1.04,0,207.2,0.0,1.0,0.0,0.0,1.0,1,100.0,122.6,41.51,1,1.0,0,1.0,0,1.0,0,1.0,0,1.0
576,'1',110.393,-5.091,87.89,-61.523,1.04,0,207.2,0.0,1.0,0.0,0.0,1.0,1,100.0,122.6,46.2,1,1.0,0,1.0,0,1.0,0,1.0,0,1.0
577,'1',112.884,-6.774,87.89,-61.523,1.04,0,207.2,0.0,1.0,0.0,0.0,1.0,1,100.0,122.6,37.72,1,1.0,0,1.0,0,1.0,0,1.0,0,1.0
578,'1',112.884,-5.962,87.89,-61.523,1.04,0,207.2,0.0,1.0,0.0,0.0,1.0,1,100.0,122.6,38.43,1,1.0,0,1.0,0,1.0,0,1.0,0,1.0
579,'1',105.508,-12.34,82.15,-57.505,1.04,0,193.68,0.0,1.0,0.0,0.0,1.0,1,100.0,114.59,55.29,1,1.0,0,1.0,0,1.0,0,1.0,0,1.0
579,'2',105.508,-12.34,82.15,-57.505,1.04,0,193.68,0.0,1.0,0.0,0.0,1.0,1,100.0,114.59,77.68,1,1.0,0,1.0,0,1.0,0,1.0,0,1.0
579,'3',105.508,-12.34,82.15,-57.505,1.04,0,193.68,0.0,1.0,0.0,0.0,1.0,1,100.0,114.59,73.85,1,1.0,0,1.0,0,1.0,0,1.0,0,1.0
582,'1',105.508,-37.019,82.15,-57.505,1.04,579,193.68,0.0,1.0,0.0,0.0,1.0,1,100.0,114.59,35.4,1,1.0,0,1.0,0,1.0,0,1.0,0,1.0
583,'1',105.508,0.059,82.15,-57.505,1.04,0,193.68,0.0,1.0,0.0,0.0,1.0,1,100.0,114.59,67.46,1,1.0,0,1.0,0,1.0,0,1.0,0,1.0
586,'1',33.662,18.822,26.21,-18.347,1.04,0,61.8,0.0,1.0,0.0,0.0,1.0,1,100.0,36.56,5.76,1,1.0,0,1.0,0,1.0,0,1.0,0,1.0
586,'2',33.662,18.822,26.21,-18.347,1.04,0,61.8,0.0,1.0,0.0,0.0,1.0,1,100.0,36.56,17.59,1,1.0,0,1.0,0,1.0,0,1.0,0,1.0
586,'3',33.662,18.822,26.21,-18.347,1.04,0,61.8,0.0,1.0,0.0,0.0,1.0,1,100.0,36.56,7.22,1,1.0,0,1.0,0,1.0,0,1.0,0,1.0
586,'4',33.662,18.822,26.21,-18.347,1.04,0,61.8,0.0,1.0,0.0,0.0,1.0,1,100.0,36.56,6.6,1,1.0,0,1.0,0,1.0,0,1.0,0,1.0
589,'1',0.0,0.0,100.95,-60.57,1.04,0,238.0,0.0,1.0,0.0,0.0,1.0,0,100.0,140.81,96.91,1,1.0,0,1.0,0,1.0,0,1.0,0,1.0
590,'1',0.0,0.0,100.95,-60.57,1.04,0,238.0,0.0,1.0,0.0,0.0,1.0,0,100.0,140.81,33.6,1,1.0,0,1.0,0,1.0,0,1.0,0,1.0
591,'1',0.0,0.0,100.95,-60.57,1.04,0,238.0,0.0,1.0,0.0,0.0,1.0,0,100.0,140.81,76.51,1,1.0,0,1.0,0,1.0,0,1.0,0,1.0
596,'1',0.0,0.0,81.36,-56.952,1.04,0,209.52,0.0,1.0,0.0,0.0,1.0,0,100.0,123.97,79.68,1,1.0,0,1.0,0,1.0,0,1.0,0,1.0
597,'1',0.0,0.0,81.36,-56.952,1.04,0,209.52,0.0,1.0,0.0,0.0,1.0,0,100.0,123.97,63.69,1,1.0,0,1.0,0,1.0,0,1.0,0,1.0
598,'1',0.955,0.0,0.0,-1.0,1.04,0,1.68,0.0,1.0,0.0,0.0,1.0,1,100.0,1.4,0.0,1,1.0,0,1.0,0,1.0,0,1.0,0,1.0
598,'2',20.468,0.0,0.0,-18.0,1.04,0,36.0,0.0,1.0,0.0,0.0,1.0,1,100.0,30.0,0.0,1,1.0,0,1.0,0,1.0,0,1.0,0,1.0
603,'1',0.0,0.0,469.73,-281.838,1.052,600,1209.6,0.0,1.0,0.0,0.0,1.0,0,100.0,715.68,499.88,1,1.0,0,1.0,0,1.0,0,1.0,0,1.0
607,'1',0.0,0.0,418.33,-250.998,1.054,604,1077.24,0.0,1.0,0.0,0.0,1.0,0,100.0,637.37,313.25,1,1.0,0,1.0,0,1.0,0,1.0,0,1.0
608,'1',0.0,0.0,418.33,-250.998,1.054,604,1077.24,0.0,1.0,0.0,0.0,1.0,0,100.0,637.37,414.13,1,1.0,0,1.0,0,1.0,0,1.0,0,1.0
612,'1',55.063,-7.536,31.95,-22.365,1.04,0,180.0,0.0,1.0,0.0,0.0,1.0,1,100.0,150.0,0.0,1,1.0,0,1.0,0,1.0,0,1.0,1,1.0
615,'1',0.0,0.0,275.22,-165.132,1.04,614,708.72,0.0,1.0,0.0,0.0,1.0,0,100.0,419.33,196.6,1,1.0,0,1.0,0,1.0,0,1.0,0,1.0
617,'1',19.612,-3.141,11.52,-8.064,1.04,0,36.0,0.0,1.0,0.0,0.0,1.0,1,100.0,21.3,11.24,1,1.0,0,1.0,0,1.0,0,1.0,0,1.0
617,'2',19.612,-3.141,11.52,-8.064,1.04,0,36.0,0.0,1.0,0.0,0.0,1.0,1,100.0,21.3,13.87,1,1.0,0,1.0,0,1.0,0,1.0,0,1.0
0 / END OF GENERATOR DATA BEGIN BRANCH DATA
1,3,'1',0.00635,0.02695,0.00279384,158.2,158.2,158.2,0.0,0.0,0.0,0.0,1,1,5.01,1,1.0,0,1.0,0,1.0,0,1.0
2,1,'1',0.01312,0.05468,0.0033746,140.2,140.2,140.2,0.0,0.0,0.0,0.0,1,1,7.97,1,1.0,0,1.0,0,1.0,0,1.0
3,2,'1',0.00728,0.0389,0.00738379,129.7,129.7,129.7,0.0,0.0,0.0,0.0,1,1,10.89,1,1.0,0,1.0,0,1.0,0,1.0
3,35,'1',0.01367,0.06535,0.0141864,185.9,185.9,185.9,0.0,0.0,0.0,0.0,1,1,16.71,1,1.0,0,1.0,0,1.0,0,1.0
4,5,'1',0.0002,0.00108,0.0,345.0,345.0,345.0,0.0,0.0,0.0,0.0,1,1,0.0,1,1.0,0,1.0,0,1.0,0,1.0
4,11,'1',0.01617,0.07615,0.0101452,157.3,157.3,157.3,0.0,0.0,0.0,0.0,1,1,14.52,1,1.0,0,1.0,0,1.0,0,1.0
4,14,'1',0.01126,0.07288,0.0162706,169.8,169.8,169.8,0.0,0.0,0.0,0.0,1,1,19.02,1,1.0,0,1.0,0,1.0,0,1.0
6,7,'1',0.00995,0.03066,0.0020398,154.9,154.9,154.9,0.0,0.0,0.0,0.0,1,1,5.22,1,1.0,0,1.0,0,1.0,0,1.0
6,23,'1',0.01595,0.06409,0.0067424,147.6,147.6,147.6,0.0,0.0,0.0,0.0,1,1,11.2,1,1.0,0,1.0,0,1.0,0,1.0
7,9,'1',0.01027,0.05768,0.00205452,168.0,168.0,168.0,0.0,0.0,0.0,0.0,1,1,8.2,1,1.0,0,1.0,0,1.0,0,1.0
8,571,'1',0.00384,0.03054,0.20291,549.3,549.3,549.3,0.0,0.0,0.0,0.0,1,1,40.94,1,1.0,0,1.0,0,1.0,0,1.0
10,1,'1',0.01276,0.0733,0.00959942,163.6,163.6,163.6,0.0,0.0,0.0,0.0,1,1,15.25,1,1.0,0,1.0,0,1.0,0,1.0
10,11,'1',0.01727,0.06921,0.00585598,175.5,175.5,175.5,0.0,0.0,0.0,0.0,1,1,14.27,1,1.0,0,1.0,0,1.0,0,1.0
11,14,'1',0.00558,0.02717,0.00208623,178.6,178.6,178.6,0.0,0.0,0.0,0.0,1,1,4.92,1,1.0,0,1.0,0,1.0,0,1.0
12,570,'1',0.00264,0.02133,0.119052,664.2,664.2,664.2,0.0,0.0,0.0,0.0,1,1,28.06,1,1.0,0,1.0,0,1.0,0,1.0
13,8,'1',0.00336,0.03163,0.03708,488.3,488.3,488.3,0.0,0.0,0.0,0.0,1,1,19.41,1,1.0,0,1.0,0,1.0,0,1.0
13,12,'1',0.0001,0.001,0.0,890.3,890.3,890.3,0.0,0.0,0.0,0.0,1,1,0.0,1,1.0,0,1.0,0,1.0,0,1.0
13,20,'1',0.00665,0.05004,0.16528,627.8,627.8,627.8,0.0,0.0,0.0,0.0,1,1,51.78,1,1.0,0,1.0,0,1.0,0,1.0
16,15,'1',0.02141,0.09305,0.00531401,145.8,145.8,145.8,0.0,0.0,0.0,0.0,1,1,12.33,1,1.0,0,1.0,0,1.0,0,1.0
17,18,'1',0.00027,0.00115,0.0,138.0,138.0,138.0,0.0,0.0,0.0,0.0,1,1,0.0,1,1.0,0,1.0,0,1.0,0,1.0
18,29,'1',0.01542,0.06443,0.017442,161.7,161.7,161.7,0.0,0.0,0.0,0.0,1,1,18.88,1,1.0,0,1.0,0,1.0,0,1.0
18,30,'1',0.02132,0.0706,0.00591085,146.3,146.3,146.3,0.0,0.0,0.0,0.0,1,1,13.81,1,1.0,0,1.0,0,1.0,0,1.0
19,22,'1',0.00025,0.00113,0.0,1500.0,1500.0,1500.0,0.0,0.0,0.0,0.0,1,1,0.0,1,1.0,0,1.0,0,1.0,0,1.0
20,19,'1',0.0001,0.001,0.0,749.6,749.6,749.6,0.0,0.0,0.0,0.0,1,1,0.0,1,1.0,0,1.0,0,1.0,0,1.0
20,201,'1',0.00743,0.05266,0.19472,650.8,650.8,650.8,0.0,0.0,0.0,0.0,1,1,54.1,1,1.0,0,1.0,0,1.0,0,1.0
22,473,'1',0.00408,0.03423,0.295266,646.8,646.8,646.8,0.0,0.0,0.0,0.0,1,1,57.18,1,1.0,0,1.0,0,1.0,0,1.0
23,26,'1',0.01431,0.06351,0.00505982,149.5,149.5,149.5,0.0,0.0,0.0,0.0,1,1,11.71,1,1.0,0,1.0,0,1.0,0,1.0
24,33,'1',0.01503,0.05067,0.0176974,162.9,162.9,162.9,0.0,0.0,0.0,0.0,1,1,16.15,1,1.0,0,1.0,0,1.0,0,1.0
24,34,'1',0.01416,0.05672,0.0187866,150.3,150.3,150.3,0.0,0.0,0.0,0.0,1,1,18.34,1,1.0,0,1.0,0,1.0,0,1.0
25,34,'1',0.01511,0.06952,0.0059337,154.3,154.3,154.3,0.0,0.0,0.0,0.0,1,1,12.67,1,1.0,0,1.0,0,1.0,0,1.0
25,547,'1',0.01161,0.05619,0.00532939,162.8,162.8,162.8,0.0,0.0,0.0,0.0,1,1,10.71,1,1.0,0,1.0,0,1.0,0,1.0
26,18,'1',0.02307,0.14347,0.00887279,155.3,155.3,155.3,0.0,0.0,0.0,0.0,1,1,19.24,1,1.0,0,1.0,0,1.0,0,1.0
27,15,'1',0.02463,0.09023,0.0126204,185.4,185.4,185.4,0.0,0.0,0.0,0.0,1,1,18.08,1,1.0,0,1.0,0,1.0,0,1.0
27,475,'1',0.01914,0.06432,0.00359889,188.0,188.0,188.0,0.0,0.0,0.0,0.0,1,1,9.45,1,1.0,0,1.0,0,1.0,0,1.0
28,29,'1',0.00025,0.00103,0.0,345.0,345.0,345.0,0.0,0.0,0.0,0.0,1,1,0.0,1,1.0,0,1.0,0,1.0,0,1.0
29,21,'1',0.01451,0.06831,0.00810963,167.8,167.8,167.8,0.0,0.0,0.0,0.0,1,1,12.81,1,1.0,0,1.0,0,1.0,0,1.0
30,31,'1',0.01235,0.05631,0.00785118,142.1,142.1,142.1,0.0,0.0,0.0,0.0,1,1,11.25,1,1.0,0,1.0,0,1.0,0,1.0
31,204,'1',0.01844,0.10602,0.0171339,141.2,141.2,141.2,0.0,0.0,0.0,0.0,1,1,22.85,1,1.0,0,1.0,0,1.0,0,1.0
32,15,'1',0.00947,0.04816,0.0038988,208.5,208.5,208.5,0.0,0.0,0.0,0.0,1,1,9.75,1,1.0,0,1.0,0,1.0,0,1.0
34,468,'1',0.03008,0.13024,0.0163429,162.0,162.0,162.0,0.0,0.0,0.0,0.0,1,1,25.29,1,1.0,0,1.0,0,1.0,0,1.0
36,32,'1',0.01342,0.0576,0.0224892,199.7,199.7,199.7,0.0,0.0,0.0,0.0,1,1,19.76,1,1.0,0,1.0,0,1.0,0,1.0
36,35,'1',0.0132,0.05853,0.00785898,191.3,191.3,191.3,0.0,0.0,0.0,0.0,1,1,11.54,1,1.0,0,1.0,0,1.0,0,1.0
37,122,'1',0.00406,0.04095,0.1376,538.7,538.7,538.7,0.0,0.0,0.0,0.0,1,1,41.51,1,1.0,0,1.0,0,1.0,0,1.0
39,140,'1',0.01632,0.07937,0.00820848,138.4,138.4,138.4,0.0,0.0,0.0,0.0,1,1,13.88,1,1.0,0,1.0,0,1.0,0,1.0
40,41,'1',0.00029,0.00113,0.0,345.0,345.0,345.0,0.0,0.0,0.0,0.0,1,1,0.0,1,1.0,0,1.0,0,1.0,0,1.0
40,43,'1',0.00759,0.03916,0.00863327,160.5,160.5,160.5,0.0,0.0,0.0,0.0,1,1,10.3,1,1.0,0,1.0,0,1.0,0,1.0
42,43,'1',0.00026,0.00103,0.0,138.0,138.0,138.0,0.0,0.0,0.0,0.0,1,1,0.0,1,1.0,0,1.0,0,1.0,0,1.0
45,40,'1',0.01551,0.05932,0.0124991,166.9,166.9,166.9,0.0,0.0,0.0,0.0,1,1,14.58,1,1.0,0,1.0,0,1.0,0,1.0
46,38,'1',0.03387,0.15112,0.0206609,153.0,153.0,153.0,0.0,0.0,0.0,0.0,1,1,29.13,1,1.0,0,1.0,0,1.0,0,1.0
46,48,'1',0.00601,0.02566,0.0163277,146.0,146.0,146.0,0.0,0.0,0.0,0.0,1,1,13.21,1,1.0,0,1.0,0,1.0,0,1.0
47,37,'1',0.00723,0.05839,0.0884,485.1,485.1,485.1,0.0,0.0,0.0,0.0,1,1,39.97,1,1.0,0,1.0,0,1.0,0,1.0
48,45,'1',0.01959,0.08775,0.0137816,172.8,172.8,172.8,0.0,0.0,0.0,0.0,1,1,19.08,1,1.0,0,1.0,0,1.0,0,1.0
48,49,'1',0.02146,0.11918,0.016182,141.0,141.0,141.0,0.0,0.0,0.0,0.0,1,1,24.75,1,1.0,0,1.0,0,1.0,0,1.0
49,50,'1',0.00027,0.00119,0.0,138.0,138.0,138.0,0.0,0.0,0.0,0.0,1,1,0.0,1,1.0,0,1.0,0,1.0,0,1.0
51,44,'1',0.02267,0.10894,0.0131627,131.1,131.1,131.1,0.0,0.0,0.0,0.0,1,1,19.98,1,1.0,0,1.0,0,1.0,0,1.0
51,170,'1',0.02426,0.0917,0.00882048,130.2,130.2,130.2,0.0,0.0,0.0,0.0,1,1,14.58,1,1.0,0,1.0,0,1.0,0,1.0
52,53,'1',0.00029,0.00109,0.0,345.0,345.0,345.0,0.0,0.0,0.0,0.0,1,1,0.0,1,1.0,0,1.0,0,1.0,0,1.0
52,55,'1',0.00629,0.02698,0.0042021,131.9,131.9,131.9,0.0,0.0,0.0,0.0,1,1,7.28,1,1.0,0,1.0,0,1.0,0,1.0
52,110,'1',0.00679,0.03422,0.0132367,159.2,159.2,159.2,0.0,0.0,0.0,0.0,1,1,11.84,1,1.0,0,1.0,0,1.0,0,1.0
54,55,'1',0.0098,0.0467,0.00331991,142.9,142.9,142.9,0.0,0.0,0.0,0.0,1,1,9.0,1,1.0,0,1.0,0,1.0,0,1.0
55,56,'1',0.00028,0.00117,0.0,138.0,138.0,138.0,0.0,0.0,0.0,0.0,1,1,0.0,1,1.0,0,1.0,0,1.0,0,1.0
57,61,'1',0.00511,0.02077,0.00131722,132.8,132.8,132.8,0.0,0.0,0.0,0.0,1,1,3.51,1,1.0,0,1.0,0,1.0,0,1.0
58,57,'1',0.00356,0.0171,0.00130718,130.9,130.9,130.9,0.0,0.0,0.0,0.0,1,1,3.36,1,1.0,0,1.0,0,1.0,0,1.0
58,61,'1',0.00679,0.02648,0.00277935,135.6,135.6,135.6,0.0,0.0,0.0,0.0,1,1,5.64,1,1.0,0,1.0,0,1.0,0,1.0
59,60,'1',0.00025,0.00112,0.0,138.0,138.0,138.0,0.0,0.0,0.0,0.0,1,1,0.0,1,1.0,0,1.0,0,1.0,0,1.0
59,85,'1',0.00798,0.0323,0.00500886,159.9,159.9,159.9,0.0,0.0,0.0,0.0,1,1,7.89,1,1.0,0,1.0,0,1.0,0,1.0
62,64,'1',0.00811,0.03542,0.00461657,183.2,183.2,183.2,0.0,0.0,0.0,0.0,1,1,6.52,1,1.0,0,1.0,0,1.0,0,1.0
62,67,'1',0.00468,0.015,0.00159608,181.4,181.4,181.4,0.0,0.0,0.0,0.0,1,1,3.4,1,1.0,0,1.0,0,1.0,0,1.0
63,65,'1',0.00224,0.01997,0.01849,623.5,623.5,623.5,0.0,0.0,0.0,0.0,1,1,13.15,1,1.0,0,1.0,0,1.0,0,1.0
65,530,'1',0.00224,0.01667,0.012,627.6,627.6,627.6,0.0,0.0,0.0,0.0,1,1,9.52,1,1.0,0,1.0,0,1.0,0,1.0
66,61,'1',0.00458,0.02094,0.00227466,172.6,172.6,172.6,0.0,0.0,0.0,0.0,1,1,3.8,1,1.0,0,1.0,0,1.0,0,1.0
67,66,'1',0.00674,0.02888,0.00147694,187.8,187.8,187.8,0.0,0.0,0.0,0.0,1,1,4.26,1,1.0,0,1.0,0,1.0,0,1.0
68,73,'1',0.04686,0.19537,0.0222273,191.8,191.8,191.8,0.0,0.0,0.0,0.0,1,1,35.21,1,1.0,0,1.0,0,1.0,0,1.0
68,471,'1',0.01262,0.0545,0.0216924,177.0,177.0,177.0,0.0,0.0,0.0,0.0,1,1,19.02,1,1.0,0,1.0,0,1.0,0,1.0
68,472,'1',0.03847,0.19361,0.0183595,155.9,155.9,155.9,0.0,0.0,0.0,0.0,1,1,32.49,1,1.0,0,1.0,0,1.0,0,1.0
70,69,'1',0.01291,0.05157,0.010614,156.2,156.2,156.2,0.0,0.0,0.0,0.0,1,1,12.89,1,1.0,0,1.0,0,1.0,0,1.0
71,84,'1',0.00429,0.03775,0.07263,484.9,484.9,484.9,0.0,0.0,0.0,0.0,1,1,27.38,1,1.0,0,1.0,0,1.0,0,1.0
72,69,'1',0.01072,0.03788,0.00372685,160.4,160.4,160.4,0.0,0.0,0.0,0.0,1,1,7.78,1,1.0,0,1.0,0,1.0,0,1.0
74,110,'1',0.01262,0.05479,0.0361386,197.9,197.9,197.9,0.0,0.0,0.0,0.0,1,1,24.29,1,1.0,0,1.0,0,1.0,0,1.0
74,330,'1',0.00716,0.02949,0.0220023,194.8,194.8,194.8,0.0,0.0,0.0,0.0,1,1,14.41,1,1.0,0,1.0,0,1.0,0,1.0
75,76,'1',0.00662,0.0249,0.00669012,176.3,176.3,176.3,0.0,0.0,0.0,0.0,1,1,9.05,1,1.0,0,1.0,0,1.0,0,1.0
76,102,'1',0.02281,0.09822,0.0116939,156.8,156.8,156.8,0.0,0.0,0.0,0.0,1,1,17.96,1,1.0,0,1.0,0,1.0,0,1.0
77,88,'1',0.00508,0.02199,0.00243196,170.6,170.6,170.6,0.0,0.0,0.0,0.0,1,1,4.71,1,1.0,0,1.0,0,1.0,0,1.0
77,93,'1',0.00705,0.03549,0.00287156,187.8,187.8,187.8,0.0,0.0,0.0,0.0,1,1,6.37,1,1.0,0,1.0,0,1.0,0,1.0
78,100,'1',0.01593,0.05231,0.00282424,179.6,179.6,179.6,0.0,0.0,0.0,0.0,1,1,7.74,1,1.0,0,1.0,0,1.0,0,1.0
79,82,'1',0.00244,0.01243,0.000980115,152.5,152.5,152.5,0.0,0.0,0.0,0.0,1,1,2.52,1,1.0,0,1.0,0,1.0,0,1.0
79,92,'1',0.00237,0.00812,0.00259672,135.2,135.2,135.2,0.0,0.0,0.0,0.0,1,1,2.77,1,1.0,0,1.0,0,1.0,0,1.0
80,81,'1',0.00268,0.01263,0.00257851,140.0,140.0,140.0,0.0,0.0,0.0,0.0,1,1,3.88,1,1.0,0,1.0,0,1.0,0,1.0
80,100,'1',0.00842,0.03095,0.00160187,151.8,151.8,151.8,0.0,0.0,0.0,0.0,1,1,4.49,1,1.0,0,1.0,0,1.0,0,1.0
81,349,'1',0.02419,0.12919,0.0110243,159.9,159.9,159.9,0.0,0.0,0.0,0.0,1,1,19.4,1,1.0,0,1.0,0,1.0,0,1.0
82,88,'1',0.0063,0.02539,0.00135712,179.7,179.7,179.7,0.0,0.0,0.0,0.0,1,1,4.07,1,1.0,0,1.0,0,1.0,0,1.0
83,524,'1',0.00174,0.01353,0.088269,450.0,450.0,450.0,0.0,0.0,0.0,0.0,1,1,20.16,1,1.0,0,1.0,0,1.0,0,1.0
84,63,'1',0.00159,0.01303,0.05518,572.4,572.4,572.4,0.0,0.0,0.0,0.0,1,1,14.14,1,1.0,0,1.0,0,1.0,0,1.0
84,83,'1',0.0001,0.001,0.0,976.9,976.9,976.9,0.0,0.0,0.0,0.0,1,1,0.0,1,1.0,0,1.0,0,1.0,0,1.0
84,98,'1',0.00269,0.02403,0.03053,567.0,567.0,567.0,0.0,0.0,0.0,0.0,1,1,14.77,1,1.0,0,1.0,0,1.0,0,1.0
85,86,'1',0.0,0.001,0.0,138.0,138.0,138.0,0.0,0.0,0.0,0.0,1,1,0.0,1,1.0,0,1.0,0,1.0,0,1.0
86,59,'1',0.00798,0.0323,0.0,159.9,159.9,159.9,0.0,0.0,0.0,0.0,1,1,0.0,1,1.0,0,1.0,0,1.0,0,1.0
87,59,'1',0.01058,0.04542,0.0032538,164.1,164.1,164.1,0.0,0.0,0.0,0.0,1,1,7.53,1,1.0,0,1.0,0,1.0,0,1.0
88,95,'1',0.00271,0.01301,0.0242552,196.1,196.1,196.1,0.0,0.0,0.0,0.0,1,1,11.28,1,1.0,0,1.0,0,1.0,0,1.0
89,78,'1',0.00386,0.02052,0.00268545,175.0,175.0,175.0,0.0,0.0,0.0,0.0,1,1,4.38,1,1.0,0,1.0,0,1.0,0,1.0
89,90,'1',0.00025,0.00117,0.0,345.0,345.0,345.0,0.0,0.0,0.0,0.0,1,1,0.0,1,1.0,0,1.0,0,1.0,0,1.0
89,92,'1',0.00615,0.02921,0.00197214,166.3,166.3,166.3,0.0,0.0,0.0,0.0,1,1,5.2,1,1.0,0,1.0,0,1.0,0,1.0
91,92,'1',0.00028,0.00111,0.0,345.0,345.0,345.0,0.0,0.0,0.0,0.0,1,1,0.0,1,1.0,0,1.0,0,1.0,0,1.0
92,82,'1',0.00641,0.02942,0.00179114,137.8,137.8,137.8,0.0,0.0,0.0,0.0,1,1,4.7,1,1.0,0,1.0,0,1.0,0,1.0
93,62,'1',0.00315,0.01468,0.00484905,204.8,204.8,204.8,0.0,0.0,0.0,0.0,1,1,5.66,1,1.0,0,1.0,0,1.0,0,1.0
94,81,'1',0.00419,0.01847,0.00357257,139.0,139.0,139.0,0.0,0.0,0.0,0.0,1,1,4.58,1,1.0,0,1.0,0,1.0,0,1.0
94,97,'1',0.00562,0.02693,0.00283582,140.9,140.9,140.9,0.0,0.0,0.0,0.0,1,1,5.65,1,1.0,0,1.0,0,1.0,0,1.0
95,97,'1',0.00629,0.02576,0.00267911,151.3,151.3,151.3,0.0,0.0,0.0,0.0,1,1,5.57,1,1.0,0,1.0,0,1.0,0,1.0
96,97,'1',0.00029,0.00102,0.0,138.0,138.0,138.0,0.0,0.0,0.0,0.0,1,1,0.0,1,1.0,0,1.0,0,1.0,0,1.0
97,75,'1',0.00878,0.04723,0.00390476,172.9,172.9,172.9,0.0,0.0,0.0,0.0,1,1,7.88,1,1.0,0,1.0,0,1.0,0,1.0
98,99,'1',0.0,0.001,0.0,690.0,690.0,690.0,0.0,0.0,0.0,0.0,1,1,0.0,1,1.0,0,1.0,0,1.0,0,1.0
98,101,'1',0.00021,0.00107,0.0,368.0,368.0,368.0,0.0,0.0,0.0,0.0,1,1,0.0,1,1.0,0,1.0,0,1.0,0,1.0
100,95,'1',0.00302,0.01382,0.00118423,184.5,184.5,184.5,0.0,0.0,0.0,0.0,1,1,2.71,1,1.0,0,1.0,0,1.0,0,1.0
103,98,'1',0.00297,0.03001,0.11778,532.9,532.9,532.9,0.0,0.0,0.0,0.0,1,1,32.53,1,1.0,0,1.0,0,1.0,0,1.0
103,512,'1',0.00416,0.03757,0.08796,587.2,587.2,587.2,0.0,0.0,0.0,0.0,1,1,32.09,1,1.0,0,1.0,0,1.0,0,1.0
103,613,'1',0.00392,0.03887,0.04656,529.0,529.0,529.0,0.0,0.0,0.0,0.0,1,1,24.27,1,1.0,0,1.0,0,1.0,0,1.0
104,102,'1',0.00675,0.03017,0.00293825,160.6,160.6,160.6,0.0,0.0,0.0,0.0,1,1,5.87,1,1.0,0,1.0,0,1.0,0,1.0
105,106,'1',0.00022,0.00116,0.0,138.0,138.0,138.0,0.0,0.0,0.0,0.0,1,1,0.0,1,1.0,0,1.0,0,1.0,0,1.0
106,58,'1',0.00702,0.04235,0.00478469,173.5,173.5,173.5,0.0,0.0,0.0,0.0,1,1,8.85,1,1.0,0,1.0,0,1.0,0,1.0
107,534,'1',0.04439,0.15936,0.0375771,161.7,161.7,161.7,0.0,0.0,0.0,0.0,1,1,41.27,1,1.0,0,1.0,0,1.0,0,1.0
108,463,'1',0.01303,0.05543,0.00594623,150.4,150.4,150.4,0.0,0.0,0.0,0.0,1,1,12.25,1,1.0,0,1.0,0,1.0,0,1.0
109,107,'1',0.0071,0.03082,0.00727123,128.3,128.3,128.3,0.0,0.0,0.0,0.0,1,1,8.86,1,1.0,0,1.0,0,1.0,0,1.0
109,117,'1',0.0133,0.06028,0.00504104,150.4,150.4,150.4,0.0,0.0,0.0,0.0,1,1,10.65,1,1.0,0,1.0,0,1.0,0,1.0
109,249,'1',0.04327,0.21711,0.0150087,142.2,142.2,142.2,0.0,0.0,0.0,0.0,1,1,31.13,1,1.0,0,1.0,0,1.0,0,1.0
110,111,'1',0.00881,0.03152,0.0549835,204.0,204.0,204.0,0.0,0.0,0.0,0.0,1,1,22.35,1,1.0,0,1.0,0,1.0,0,1.0
111,261,'1',0.03907,0.19534,0.0157237,135.9,135.9,135.9,0.0,0.0,0.0,0.0,1,1,30.39,1,1.0,0,1.0,0,1.0,0,1.0
112,73,'1',0.01206,0.0635,0.00756139,187.3,187.3,187.3,0.0,0.0,0.0,0.0,1,1,12.0,1,1.0,0,1.0,0,1.0,0,1.0
112,115,'1',0.00297,0.01737,0.00310543,172.2,172.2,172.2,0.0,0.0,0.0,0.0,1,1,4.69,1,1.0,0,1.0,0,1.0,0,1.0
113,115,'1',0.01381,0.04348,0.00259903,170.2,170.2,170.2,0.0,0.0,0.0,0.0,1,1,6.41,1,1.0,0,1.0,0,1.0,0,1.0
113,373,'1',0.01154,0.06572,0.00222828,164.9,164.9,164.9,0.0,0.0,0.0,0.0,1,1,8.51,1,1.0,0,1.0,0,1.0,0,1.0
114,115,'1',0.00024,0.00117,0.0,345.0,345.0,345.0,0.0,0.0,0.0,0.0,1,1,0.0,1,1.0,0,1.0,0,1.0,0,1.0
116,112,'1',0.02795,0.09056,0.00408775,119.4,119.4,119.4,0.0,0.0,0.0,0.0,1,1,11.44,1,1.0,0,1.0,0,1.0,0,1.0
116,115,'1',0.01108,0.05171,0.00730987,100.8,100.8,100.8,0.0,0.0,0.0,0.0,1,1,12.44,1,1.0,0,1.0,0,1.0,0,1.0
117,616,'1',0.00285,0.01589,0.00712197,153.9,153.9,153.9,0.0,0.0,0.0,0.0,1,1,7.08,1,1.0,0,1.0,0,1.0,0,1.0
118,106,'1',0.01139,0.05676,0.00719749,178.7,178.7,178.7,0.0,0.0,0.0,0.0,1,1,12.94,1,1.0,0,1.0,0,1.0,0,1.0
119,70,'1',0.02097,0.09364,0.022184,146.7,146.7,146.7,0.0,0.0,0.0,0.0,1,1,24.67,1,1.0,0,1.0,0,1.0,0,1.0
119,120,'1',0.00419,0.02113,0.00554025,148.5,148.5,148.5,0.0,0.0,0.0,0.0,1,1,7.18,1,1.0,0,1.0,0,1.0,0,1.0
119,133,'1',0.01573,0.07063,0.00986915,103.5,103.5,103.5,0.0,0.0,0.0,0.0,1,1,14.95,1,1.0,0,1.0,0,1.0,0,1.0
120,121,'1',0.01609,0.07601,0.00787361,163.5,163.5,163.5,0.0,0.0,0.0,0.0,1,1,13.51,1,1.0,0,1.0,0,1.0,0,1.0
120,133,'1',0.01978,0.09754,0.0141865,121.5,121.5,121.5,0.0,0.0,0.0,0.0,1,1,19.18,1,1.0,0,1.0,0,1.0,0,1.0
121,154,'1',0.01452,0.05895,0.0103776,169.9,169.9,169.9,0.0,0.0,0.0,0.0,1,1,13.44,1,1.0,0,1.0,0,1.0,0,1.0
122,124,'1',0.00027,0.00107,0.0,690.0,690.0,690.0,0.0,0.0,0.0,0.0,1,1,0.0,1,1.0,0,1.0,0,1.0,0,1.0
123,39,'1',0.01755,0.07489,0.0160687,145.4,145.4,145.4,0.0,0.0,0.0,0.0,1,1,18.49,1,1.0,0,1.0,0,1.0,0,1.0
125,33,'1',0.08644,0.32874,0.0286887,159.1,159.1,159.1,0.0,0.0,0.0,0.0,1,1,51.2,1,1.0,0,1.0,0,1.0,0,1.0
125,140,'1',0.01322,0.04697,0.0113233,145.3,145.3,145.3,0.0,0.0,0.0,0.0,1,1,13.01,1,1.0,0,1.0,0,1.0,0,1.0
126,128,'1',0.05475,0.21697,0.036362,156.0,156.0,156.0,0.0,0.0,0.0,0.0,1,1,46.06,1,1.0,0,1.0,0,1.0,0,1.0
126,137,'1',0.01927,0.08931,0.0087913,130.7,130.7,130.7,0.0,0.0,0.0,0.0,1,1,15.66,1,1.0,0,1.0,0,1.0,0,1.0
126,138,'1',0.03653,0.15094,0.0217753,151.5,151.5,151.5,0.0,0.0,0.0,0.0,1,1,30.61,1,1.0,0,1.0,0,1.0,0,1.0
126,139,'1',0.03657,0.17579,0.0287401,140.6,140.6,140.6,0.0,0.0,0.0,0.0,1,1,38.39,1,1.0,0,1.0,0,1.0,0,1.0
126,147,'1',0.01795,0.07646,0.0191246,128.4,128.4,128.4,0.0,0.0,0.0,0.0,1,1,21.25,1,1.0,0,1.0,0,1.0,0,1.0
127,118,'1',0.007,0.02635,0.00514737,173.7,173.7,173.7,0.0,0.0,0.0,0.0,1,1,7.64,1,1.0,0,1.0,0,1.0,0,1.0
127,131,'1',0.01735,0.08945,0.0177005,165.3,165.3,165.3,0.0,0.0,0.0,0.0,1,1,22.27,1,1.0,0,1.0,0,1.0,0,1.0
128,118,'1',0.01773,0.04454,0.00829303,149.5,149.5,149.5,0.0,0.0,0.0,0.0,1,1,11.53,1,1.0,0,1.0,0,1.0,0,1.0
128,129,'1',0.00028,0.00106,0.0,138.0,138.0,138.0,0.0,0.0,0.0,0.0,1,1,0.0,1,1.0,0,1.0,0,1.0,0,1.0
130,131,'1',0.01691,0.06574,0.00697598,148.7,148.7,148.7,0.0,0.0,0.0,0.0,1,1,11.29,1,1.0,0,1.0,0,1.0,0,1.0
131,475,'1',0.0716,0.32698,0.0186167,153.4,153.4,153.4,0.0,0.0,0.0,0.0,1,1,42.46,1,1.0,0,1.0,0,1.0,0,1.0
134,136,'1',0.00026,0.00112,0.0,690.0,690.0,690.0,0.0,0.0,0.0,0.0,1,1,0.0,1,1.0,0,1.0,0,1.0,0,1.0
135,137,'1',0.05863,0.22774,0.0259399,136.8,136.8,136.8,0.0,0.0,0.0,0.0,1,1,40.94,1,1.0,0,1.0,0,1.0,0,1.0
135,145,'1',0.02729,0.1088,0.0387169,179.1,179.1,179.1,0.0,0.0,0.0,0.0,1,1,33.9,1,1.0,0,1.0,0,1.0,0,1.0
137,151,'1',0.01734,0.06356,0.0178476,125.5,125.5,125.5,0.0,0.0,0.0,0.0,1,1,18.97,1,1.0,0,1.0,0,1.0,0,1.0
138,561,'1',0.00494,0.02121,0.00176502,158.9,158.9,158.9,0.0,0.0,0.0,0.0,1,1,4.38,1,1.0,0,1.0,0,1.0,0,1.0
139,561,'1',0.01495,0.06824,0.00475223,146.7,146.7,146.7,0.0,0.0,0.0,0.0,1,1,10.27,1,1.0,0,1.0,0,1.0,0,1.0
141,144,'1',0.00027,0.00106,0.0,1000.0,1000.0,1000.0,0.0,0.0,0.0,0.0,1,1,0.0,1,1.0,0,1.0,0,1.0,0,1.0
142,141,'1',0.0001,0.001,0.0,782.8,782.8,782.8,0.0,0.0,0.0,0.0,1,1,0.0,1,1.0,0,1.0,0,1.0,0,1.0
142,153,'1',0.00142,0.01154,0.03236,609.3,609.3,609.3,0.0,0.0,0.0,0.0,1,1,11.79,1,1.0,0,1.0,0,1.0,0,1.0
143,151,'1',0.00479,0.01793,0.00234704,169.0,169.0,169.0,0.0,0.0,0.0,0.0,1,1,4.34,1,1.0,0,1.0,0,1.0,0,1.0
144,600,'1',0.00096,0.00828,0.0557702,530.1,530.1,530.1,0.0,0.0,0.0,0.0,1,1,12.2,1,1.0,0,1.0,0,1.0,0,1.0
145,146,'1',0.00022,0.0011,0.0,345.0,345.0,345.0,0.0,0.0,0.0,0.0,1,1,0.0,1,1.0,0,1.0,0,1.0,0,1.0
145,157,'1',0.01243,0.04954,0.00505538,160.1,160.1,160.1,0.0,0.0,0.0,0.0,1,1,9.75,1,1.0,0,1.0,0,1.0,0,1.0
147,132,'1',0.00809,0.03748,0.00657427,159.9,159.9,159.9,0.0,0.0,0.0,0.0,1,1,9.91,1,1.0,0,1.0,0,1.0,0,1.0
147,468,'1',0.02658,0.14365,0.0196622,155.0,155.0,155.0,0.0,0.0,0.0,0.0,1,1,27.69,1,1.0,0,1.0,0,1.0,0,1.0
148,151,'1',0.0037,0.02019,0.00271169,205.1,205.1,205.1,0.0,0.0,0.0,0.0,1,1,4.8,1,1.0,0,1.0,0,1.0,0,1.0
149,65,'1',0.00472,0.04493,0.08558,629.3,629.3,629.3,0.0,0.0,0.0,0.0,1,1,32.22,1,1.0,0,1.0,0,1.0,0,1.0
149,142,'1',0.00229,0.02196,0.01927,574.1,574.1,574.1,0.0,0.0,0.0,0.0,1,1,11.54,1,1.0,0,1.0,0,1.0,0,1.0
149,601,'1',0.00151,0.01543,0.03688,631.2,631.2,631.2,0.0,0.0,0.0,0.0,1,1,12.75,1,1.0,0,1.0,0,1.0,0,1.0
151,147,'1',0.00664,0.02439,0.00209727,171.8,171.8,171.8,0.0,0.0,0.0,0.0,1,1,4.81,1,1.0,0,1.0,0,1.0,0,1.0
152,150,'1',0.00627,0.03057,0.00174303,167.5,167.5,167.5,0.0,0.0,0.0,0.0,1,1,5.1,1,1.0,0,1.0,0,1.0,0,1.0
152,158,'1',0.00728,0.0316,0.00698247,157.8,157.8,157.8,0.0,0.0,0.0,0.0,1,1,9.51,1,1.0,0,1.0,0,1.0,0,1.0
154,159,'1',0.00373,0.01636,0.00296753,195.7,195.7,195.7,0.0,0.0,0.0,0.0,1,1,4.11,1,1.0,0,1.0,0,1.0,0,1.0
155,154,'1',0.00292,0.01533,0.00182946,162.2,162.2,162.2,0.0,0.0,0.0,0.0,1,1,3.59,1,1.0,0,1.0,0,1.0,0,1.0
155,156,'1',0.00024,0.00108,0.0,138.0,138.0,138.0,0.0,0.0,0.0,0.0,1,1,0.0,1,1.0,0,1.0,0,1.0,0,1.0
155,157,'1',0.00467,0.02837,0.00325531,150.6,150.6,150.6,0.0,0.0,0.0,0.0,1,1,5.54,1,1.0,0,1.0,0,1.0,0,1.0
158,127,'1',0.00631,0.03374,0.00724037,174.5,174.5,174.5,0.0,0.0,0.0,0.0,1,1,10.72,1,1.0,0,1.0,0,1.0,0,1.0
158,150,'1',0.0044,0.02608,0.00300947,172.2,172.2,172.2,0.0,0.0,0.0,0.0,1,1,5.9,1,1.0,0,1.0,0,1.0,0,1.0
159,161,'1',0.00443,0.02192,0.00370592,169.3,169.3,169.3,0.0,0.0,0.0,0.0,1,1,5.29,1,1.0,0,1.0,0,1.0,0,1.0
159,162,'1',0.0135,0.05937,0.00287526,139.9,139.9,139.9,0.0,0.0,0.0,0.0,1,1,8.58,1,1.0,0,1.0,0,1.0,0,1.0
160,148,'1',0.00531,0.02513,0.0026326,196.0,196.0,196.0,0.0,0.0,0.0,0.0,1,1,4.7,1,1.0,0,1.0,0,1.0,0,1.0
160,161,'1',0.00372,0.01524,0.00230268,179.6,179.6,179.6,0.0,0.0,0.0,0.0,1,1,4.67,1,1.0,0,1.0,0,1.0,0,1.0
161,162,'1',0.00732,0.03622,0.00247326,125.2,125.2,125.2,0.0,0.0,0.0,0.0,1,1,5.62,1,1.0,0,1.0,0,1.0,0,1.0
162,163,'1',0.00022,0.00105,0.0,345.0,345.0,345.0,0.0,0.0,0.0,0.0,1,1,0.0,1,1.0,0,1.0,0,1.0,0,1.0
164,167,'1',0.00427,0.01559,0.00148194,170.7,170.7,170.7,0.0,0.0,0.0,0.0,1,1,3.58,1,1.0,0,1.0,0,1.0,0,1.0
164,171,'1',0.01079,0.04997,0.00357652,133.5,133.5,133.5,0.0,0.0,0.0,0.0,1,1,9.4,1,1.0,0,1.0,0,1.0,0,1.0
166,165,'1',0.0001,0.001,0.0,670.3,670.3,670.3,0.0,0.0,0.0,0.0,1,1,0.0,1,1.0,0,1.0,0,1.0,0,1.0
166,168,'1',0.00029,0.00111,0.0,690.0,690.0,690.0,0.0,0.0,0.0,0.0,1,1,0.0,1,1.0,0,1.0,0,1.0,0,1.0
168,613,'1',0.00619,0.05051,0.14414,516.4,516.4,516.4,0.0,0.0,0.0,0.0,1,1,47.47,1,1.0,0,1.0,0,1.0,0,1.0
169,170,'1',0.00027,0.00109,0.0,138.0,138.0,138.0,0.0,0.0,0.0,0.0,1,1,0.0,1,1.0,0,1.0,0,1.0,0,1.0
170,164,'1',0.0076,0.04174,0.00959522,151.9,151.9,151.9,0.0,0.0,0.0,0.0,1,1,12.86,1,1.0,0,1.0,0,1.0,0,1.0
171,167,'1',0.01426,0.05872,0.00459238,158.9,158.9,158.9,0.0,0.0,0.0,0.0,1,1,11.63,1,1.0,0,1.0,0,1.0,0,1.0
171,172,'1',0.0161,0.05981,0.0157339,125.0,125.0,125.0,0.0,0.0,0.0,0.0,1,1,16.61,1,1.0,0,1.0,0,1.0,0,1.0
172,43,'1',0.03117,0.13925,0.0111651,157.5,157.5,157.5,0.0,0.0,0.0,0.0,1,1,21.34,1,1.0,0,1.0,0,1.0,0,1.0
...
0 / END OF BRANCH DATA BEGIN TRANSFORMER DATA
9,8,0,'1',1,1,1,0.0,0.0,2,'            ',1,1,1.0,0,1.0,0,1.0,0,1.0,'            '
0.00183,0.06646,100.0
1.0,115.0,0.0,181.7,181.7,181.7,0,8,1.1,0.9,1.01,0.99,33,0,0.0,0.0,0.0
1.0,230.0
14,13,0,'1',1,1,1,0.0,0.0,2,'            ',1,1,1.0,0,1.0,0,1.0,0,1.0,'            '
0.0012,0.05438,100.0
1.0,115.0,0.0,244.1,244.1,244.1,0,13,1.1,0.9,1.01,0.99,33,0,0.0,0.0,0.0
1.0,230.0
21,20,0,'1',1,1,1,0.0,0.0,2,'            ',1,1,1.0,0,1.0,0,1.0,0,1.0,'            '
0.00195,0.08874,100.0
1.0,115.0,0.0,160.1,160.1,160.1,0,20,1.1,0.9,1.01,0.99,33,0,0.0,0.0,0.0
1.0,230.0
38,37,0,'1',1,1,1,0.0,0.0,2,'            ',1,1,1.0,0,1.0,0,1.0,0,1.0,'            '
0.00139,0.05436,100.0
1.0,115.0,0.0,145.6,145.6,145.6,0,37,1.1,0.9,1.01,0.99,33,0,0.0,0.0,0.0
1.0,230.0
48,47,0,'1',1,1,1,0.0,0.0,2,'            ',1,1,1.0,0,1.0,0,1.0,0,1.0,'            '
0.00097,0.03629,100.0
1.0,115.0,0.0,177.0,177.0,177.0,0,47,1.1,0.9,1.01,0.99,33,0,0.0,0.0,0.0
1.0,230.0
64,63,0,'1',1,1,1,0.0,0.0,2,'            ',1,1,1.0,0,1.0,0,1.0,0,1.0,'            '
0.00164,0.06974,100.0
1.0,115.0,0.0,244.6,244.6,244.6,0,63,1.1,0.9,1.01,0.99,33,0,0.0,0.0,0.0
1.0,230.0
66,65,0,'1',1,1,1,0.0,0.0,2,'            ',1,1,1.0,0,1.0,0,1.0,0,1.0,'            '
0.0012,0.05508,100.0
1.0,115.0,-6.0,271.1,271.1,271.1,-3,65,30.0,-30.0,101.0,99.0,31,29,0.0,0.0,0.0
1.0,230.0
72,71,0,'1',1,1,1,0.0,0.0,2,'            ',1,1,1.0,0,1.0,0,1.0,0,1.0,'            '
0.00097,0.04679,100.0
1.0,115.0,0.0,140.7,140.7,140.7,0,71,1.1,0.9,1.01,0.99,33,0,0.0,0.0,0.0
1.0,230.0
84,86,0,'1',1,1,1,0.0,0.0,2,'            ',1,1,1.0,0,1.0,0,1.0,0,1.0,'            '
0.00143,0.07416,100.0
1.0,230.0,0.0,235.4,235.4,235.4,0,0,1.5,0.51,1.5,0.51,159,0,0.0,0.0,0.0
1.0,115.0
85,84,0,'1',1,1,1,0.0,0.0,2,'            ',1,1,1.0,0,1.0,0,1.0,0,1.0,'            '
0.00143,0.07416,100.0
1.0,115.0,0.0,235.4,235.4,235.4,0,84,1.1,0.9,1.01,0.99,33,0,0.0,0.0,0.0
1.0,230.0
100,98,0,'1',1,1,1,0.0,0.0,2,'            ',1,1,1.0,0,1.0,0,1.0,0,1.0,'            '
0.00223,0.0832,100.0
1.0,115.0,0.0,263.8,263.8,263.8,0,98,1.1,0.9,1.01,0.99,33,0,0.0,0.0,0.0
1.0,230.0
104,103,0,'1',1,1,1,0.0,0.0,2,'            ',1,1,1.0,0,1.0,0,1.0,0,1.0,'            '
0.00119,0.05827,100.0
1.0,115.0,0.0,180.2,180.2,180.2,0,103,1.1,0.9,1.01,0.99,33,0,0.0,0.0,0.0
1.0,230.0
123,122,0,'1',1,1,1,0.0,0.0,2,'            ',1,1,1.0,0,1.0,0,1.0,0,1.0,'            '
0.0012,0.06691,100.0
1.0,115.0,0.0,112.2,112.2,112.2,0,122,1.1,0.9,1.01,0.99,33,0,0.0,0.0,0.0
1.0,230.0
135,134,0,'1',1,1,1,0.0,0.0,2,'            ',1,1,1.0,0,1.0,0,1.0,0,1.0,'            '
0.00143,0.07303,100.0
1.0,115.0,0.0,179.6,179.6,179.6,0,134,1.1,0.9,1.01,0.99,33,0,0.0,0.0,0.0
1.0,230.0
143,142,0,'1',1,1,1,0.0,0.0,2,'            ',1,1,1.0,0,1.0,0,1.0,0,1.0,'            '
0.00147,0.05981,100.0
1.0,115.0,0.0,216.5,216.5,216.5,0,142,1.1,0.9,1.01,0.99,33,0,0.0,0.0,0.0
1.0,230.0
150,149,0,'1',1,1,1,0.0,0.0,2,'            ',1,1,1.0,0,1.0,0,1.0,0,1.0,'            '
0.00098,0.04276,100.0
1.0,115.0,0.0,269.6,269.6,269.6,0,149,1.1,0.9,1.01,0.99,33,0,0.0,0.0,0.0
1.0,230.0
154,153,0,'1',1,1,1,0.0,0.0,2,'            ',1,1,1.0,0,1.0,0,1.0,0,1.0,'            '
0.00117,0.05409,100.0
1.0,115.0,0.0,277.3,277.3,277.3,0,153,1.1,0.9,1.01,0.99,33,0,0.0,0.0,0.0
1.0,230.0
154,153,0,'2',1,1,1,0.0,0.0,2,'            ',1,1,1.0,0,1.0,0,1.0,0,1.0,'            '
0.00117,0.05409,100.0
1.0,115.0,0.0,277.3,277.3,277.3,0,153,1.1,0.9,1.01,0.99,33,0,0.0,0.0,0.0
1.0,230.0
167,166,0,'1',1,1,1,0.0,0.0,2,'            ',1,1,1.0,0,1.0,0,1.0,0,1.0,'            '
0.00141,0.05505,100.0
1.0,115.0,0.0,224.3,224.3,224.3,0,166,1.1,0.9,1.01,0.99,33,0,0.0,0.0,0.0
1.0,230.0
187,186,0,'1',1,1,1,0.0,0.0,2,'            ',1,1,1.0,0,1.0,0,1.0,0,1.0,'            '
0.00068,0.03758,100.0
1.0,115.0,0.0,270.9,270.9,270.9,0,186,1.1,0.9,1.01,0.99,33,0,0.0,0.0,0.0
1.0,230.0
203,201,0,'1',1,1,1,0.0,0.0,2,'            ',1,1,1.0,0,1.0,0,1.0,0,1.0,'            '
0.00141,0.05973,100.0
1.0,115.0,0.0,206.4,206.4,206.4,0,201,1.1,0.9,1.01,0.99,33,0,0.0,0.0,0.0
1.0,230.0
210,209,0,'1',1,1,1,0.0,0.0,2,'            ',1,1,1.0,0,1.0,0,1.0,0,1.0,'            '
0.00136,0.06915,100.0
1.0,115.0,0.0,220.4,220.4,220.4,0,209,1.1,0.9,1.01,0.99,33,0,0.0,0.0,0.0
1.0,230.0
212,211,0,'1',1,1,1,0.0,0.0,2,'            ',1,1,1.0,0,1.0,0,1.0,0,1.0,'            '
0.0019,0.07828,100.0
1.0,115.0,0.0,208.6,208.6,208.6,0,211,1.1,0.9,1.01,0.99,33,0,0.0,0.0,0.0
1.0,230.0
217,216,0,'1',1,1,1,0.0,0.0,2,'            ',1,1,1.0,0,1.0,0,1.0,0,1.0,'            '
0.0007,0.03192,100.0
1.0,115.0,0.0,241.9,241.9,241.9,0,216,1.1,0.9,1.01,0.99,33,0,0.0,0.0,0.0
1.0,230.0
231,230,0,'1',1,1,1,0.0,0.0,2,'            ',1,1,1.0,0,1.0,0,1.0,0,1.0,'            '
0.00138,0.05366,100.0
1.0,115.0,0.0,230.5,230.5,230.5,0,230,1.1,0.9,1.01,0.99,33,0,0.0,0.0,0.0
1.0,230.0
235,234,0,'1',1,1,1,0.0,0.0,2,'            ',1,1,1.0,0,1.0,0,1.0,0,1.0,'            '
0.00141,0.06492,100.0
1.0,115.0,0.0,228.2,228.2,228.2,0,234,1.1,0.9,1.01,0.99,33,0,0.0,0.0,0.0
1.0,230.0
259,258,0,'1',1,1,1,0.0,0.0,2,'            ',1,1,1.0,0,1.0,0,1.0,0,1.0,'            '
0.00136,0.05904,100.0
1.0,115.0,0.0,202.7,202.7,202.7,0,258,1.1,0.9,1.01,0.99,33,0,0.0,0.0,0.0
1.0,230.0
264,263,0,'1',1,1,1,0.0,0.0,2,'            ',1,1,1.0,0,1.0,0,1.0,0,1.0,'            '
0.00133,0.05967,100.0
...